<?xml version="1.0" encoding="UTF-8"?>

<!-- generated on 2024-05-23 04:39:57 by Eclipse SUMO netedit Version 1.19.0
<configuration xmlns:xsi="http://www.w3.org/2001/XMLSchema-instance" xsi:noNamespaceSchemaLocation="http://sumo.dlr.de/xsd/neteditConfiguration.xsd">

    <input>
        <route-files value="C:\Users\vky\Desktop\1.rou.xml"/>
        <sumo-net-file value="C:\Users\vky\Desktop\crosnew2.net.xml"/>
    </input>

    <output>
        <output-file value="C:\Users\vky\Desktop\crosnew2.net.xml"/>
    </output>

    <processing>
        <geometry.min-radius.fix.railways value="false"/>
        <geometry.max-grade.fix value="false"/>
        <offset.disable-normalization value="true"/>
        <lefthand value="0"/>
    </processing>

    <junctions>
        <no-turnarounds value="true"/>
        <junctions.corner-detail value="5"/>
        <junctions.limit-turn-speed value="5.50"/>
        <rectangular-lane-cut value="0"/>
    </junctions>

    <pedestrian>
        <walkingareas value="0"/>
    </pedestrian>

</configuration>
-->

<net version="1.16" junctionCornerDetail="5" limitTurnSpeed="5.50" xmlns:xsi="http://www.w3.org/2001/XMLSchema-instance" xsi:noNamespaceSchemaLocation="http://sumo.dlr.de/xsd/net_file.xsd">

    <location netOffset="0.00,0.00" convBoundary="-500.00,-400.00,700.00,400.00" origBoundary="-10000000000.00,-10000000000.00,10000000000.00,10000000000.00" projParameter="!"/>

    <edge id=":J1_0" function="internal">
        <lane id=":J1_0_0" index="0" speed="6.51" length="9.03" shape="95.20,210.40 94.85,207.95 93.80,206.20 92.05,205.15 89.60,204.80"/>
    </edge>
    <edge id=":J1_1" function="internal">
        <lane id=":J1_1_0" index="0" speed="13.89" length="20.80" shape="95.20,210.40 95.20,189.60"/>
        <lane id=":J1_1_1" index="1" speed="13.89" length="20.80" shape="98.40,210.40 98.40,189.60"/>
    </edge>
    <edge id=":J1_3" function="internal">
        <lane id=":J1_3_0" index="0" speed="9.26" length="5.01" shape="98.40,210.40 99.11,205.44"/>
    </edge>
    <edge id=":J1_16" function="internal">
        <lane id=":J1_16_0" index="0" speed="9.26" length="14.34" shape="99.11,205.44 99.15,205.15 101.40,201.40 105.15,199.15 110.40,198.40"/>
    </edge>
    <edge id=":J1_4" function="internal">
        <lane id=":J1_4_0" index="0" speed="6.51" length="9.03" shape="110.40,204.80 107.95,205.15 106.20,206.20 105.15,207.95 104.80,210.40"/>
    </edge>
    <edge id=":J1_5" function="internal">
        <lane id=":J1_5_0" index="0" speed="13.89" length="20.80" shape="110.40,204.80 89.60,204.80"/>
        <lane id=":J1_5_1" index="1" speed="13.89" length="20.80" shape="110.40,201.60 89.60,201.60"/>
    </edge>
    <edge id=":J1_7" function="internal">
        <lane id=":J1_7_0" index="0" speed="9.26" length="5.01" shape="110.40,201.60 105.44,200.89"/>
    </edge>
    <edge id=":J1_17" function="internal">
        <lane id=":J1_17_0" index="0" speed="9.26" length="14.34" shape="105.44,200.89 105.15,200.85 101.40,198.60 99.15,194.85 98.40,189.60"/>
    </edge>
    <edge id=":J1_8" function="internal">
        <lane id=":J1_8_0" index="0" speed="6.51" length="9.03" shape="104.80,189.60 105.15,192.05 106.20,193.80 107.95,194.85 110.40,195.20"/>
    </edge>
    <edge id=":J1_9" function="internal">
        <lane id=":J1_9_0" index="0" speed="13.89" length="20.80" shape="104.80,189.60 104.80,210.40"/>
        <lane id=":J1_9_1" index="1" speed="13.89" length="20.80" shape="101.60,189.60 101.60,210.40"/>
    </edge>
    <edge id=":J1_11" function="internal">
        <lane id=":J1_11_0" index="0" speed="9.26" length="5.01" shape="101.60,189.60 100.89,194.56"/>
    </edge>
    <edge id=":J1_18" function="internal">
        <lane id=":J1_18_0" index="0" speed="9.26" length="14.34" shape="100.89,194.56 100.85,194.85 98.60,198.60 94.85,200.85 89.60,201.60"/>
    </edge>
    <edge id=":J1_12" function="internal">
        <lane id=":J1_12_0" index="0" speed="6.51" length="9.03" shape="89.60,195.20 92.05,194.85 93.80,193.80 94.85,192.05 95.20,189.60"/>
    </edge>
    <edge id=":J1_13" function="internal">
        <lane id=":J1_13_0" index="0" speed="13.89" length="20.80" shape="89.60,195.20 110.40,195.20"/>
        <lane id=":J1_13_1" index="1" speed="13.89" length="20.80" shape="89.60,198.40 110.40,198.40"/>
    </edge>
    <edge id=":J1_15" function="internal">
        <lane id=":J1_15_0" index="0" speed="9.26" length="5.01" shape="89.60,198.40 94.56,199.11"/>
    </edge>
    <edge id=":J1_19" function="internal">
        <lane id=":J1_19_0" index="0" speed="9.26" length="14.34" shape="94.56,199.11 94.85,199.15 98.60,201.40 100.85,205.15 101.60,210.40"/>
    </edge>
    <edge id=":J10_0" function="internal">
        <lane id=":J10_0_0" index="0" speed="6.51" length="9.03" shape="95.20,-189.60 94.85,-192.05 93.80,-193.80 92.05,-194.85 89.60,-195.20"/>
    </edge>
    <edge id=":J10_1" function="internal">
        <lane id=":J10_1_0" index="0" speed="13.89" length="20.80" shape="95.20,-189.60 95.20,-210.40"/>
        <lane id=":J10_1_1" index="1" speed="13.89" length="20.80" shape="98.40,-189.60 98.40,-210.40"/>
    </edge>
    <edge id=":J10_3" function="internal">
        <lane id=":J10_3_0" index="0" speed="9.26" length="5.01" shape="98.40,-189.60 99.11,-194.56"/>
    </edge>
    <edge id=":J10_16" function="internal">
        <lane id=":J10_16_0" index="0" speed="9.26" length="14.34" shape="99.11,-194.56 99.15,-194.85 101.40,-198.60 105.15,-200.85 110.40,-201.60"/>
    </edge>
    <edge id=":J10_4" function="internal">
        <lane id=":J10_4_0" index="0" speed="6.51" length="9.03" shape="110.40,-195.20 107.95,-194.85 106.20,-193.80 105.15,-192.05 104.80,-189.60"/>
    </edge>
    <edge id=":J10_5" function="internal">
        <lane id=":J10_5_0" index="0" speed="13.89" length="20.80" shape="110.40,-195.20 89.60,-195.20"/>
        <lane id=":J10_5_1" index="1" speed="13.89" length="20.80" shape="110.40,-198.40 89.60,-198.40"/>
    </edge>
    <edge id=":J10_7" function="internal">
        <lane id=":J10_7_0" index="0" speed="9.26" length="5.01" shape="110.40,-198.40 105.44,-199.11"/>
    </edge>
    <edge id=":J10_17" function="internal">
        <lane id=":J10_17_0" index="0" speed="9.26" length="14.34" shape="105.44,-199.11 105.15,-199.15 101.40,-201.40 99.15,-205.15 98.40,-210.40"/>
    </edge>
    <edge id=":J10_8" function="internal">
        <lane id=":J10_8_0" index="0" speed="6.51" length="9.03" shape="104.80,-210.40 105.15,-207.95 106.20,-206.20 107.95,-205.15 110.40,-204.80"/>
    </edge>
    <edge id=":J10_9" function="internal">
        <lane id=":J10_9_0" index="0" speed="13.89" length="20.80" shape="104.80,-210.40 104.80,-189.60"/>
        <lane id=":J10_9_1" index="1" speed="13.89" length="20.80" shape="101.60,-210.40 101.60,-189.60"/>
    </edge>
    <edge id=":J10_11" function="internal">
        <lane id=":J10_11_0" index="0" speed="9.26" length="5.01" shape="101.60,-210.40 100.89,-205.44"/>
    </edge>
    <edge id=":J10_18" function="internal">
        <lane id=":J10_18_0" index="0" speed="9.26" length="14.34" shape="100.89,-205.44 100.85,-205.15 98.60,-201.40 94.85,-199.15 89.60,-198.40"/>
    </edge>
    <edge id=":J10_12" function="internal">
        <lane id=":J10_12_0" index="0" speed="6.51" length="9.03" shape="89.60,-204.80 92.05,-205.15 93.80,-206.20 94.85,-207.95 95.20,-210.40"/>
    </edge>
    <edge id=":J10_13" function="internal">
        <lane id=":J10_13_0" index="0" speed="13.89" length="20.80" shape="89.60,-204.80 110.40,-204.80"/>
        <lane id=":J10_13_1" index="1" speed="13.89" length="20.80" shape="89.60,-201.60 110.40,-201.60"/>
    </edge>
    <edge id=":J10_15" function="internal">
        <lane id=":J10_15_0" index="0" speed="9.26" length="5.01" shape="89.60,-201.60 94.56,-200.89"/>
    </edge>
    <edge id=":J10_19" function="internal">
        <lane id=":J10_19_0" index="0" speed="9.26" length="14.34" shape="94.56,-200.89 94.85,-200.85 98.60,-198.60 100.85,-194.85 101.60,-189.60"/>
    </edge>
    <edge id=":J17_0" function="internal">
        <lane id=":J17_0_0" index="0" speed="9.84" length="8.80" shape="305.27,201.52 303.54,202.95 301.65,203.98 299.58,204.59 297.35,204.80"/>
        <lane id=":J17_0_1" index="1" speed="8.39" length="6.28" shape="303.01,199.26 301.77,200.28 300.42,201.01 298.95,201.45 297.35,201.60"/>
    </edge>
    <edge id=":J17_2" function="internal">
        <lane id=":J17_2_0" index="0" speed="4.20" length="1.26" shape="297.35,195.20 297.67,195.17 297.96,195.08 298.23,194.94 298.48,194.73"/>
        <lane id=":J17_2_1" index="1" speed="6.63" length="3.77" shape="297.35,198.40 298.31,198.31 299.19,198.05 300.00,197.61 300.74,196.99"/>
    </edge>
    <edge id=":J18_0" function="internal">
        <lane id=":J18_0_0" index="0" speed="9.84" length="8.80" shape="-97.35,204.80 -99.58,204.59 -101.65,203.98 -103.54,202.95 -105.27,201.52"/>
        <lane id=":J18_0_1" index="1" speed="8.39" length="6.28" shape="-97.35,201.60 -98.95,201.45 -100.42,201.01 -101.77,200.28 -103.01,199.26"/>
    </edge>
    <edge id=":J18_2" function="internal">
        <lane id=":J18_2_0" index="0" speed="4.20" length="1.26" shape="-98.48,194.73 -98.23,194.94 -97.96,195.08 -97.67,195.17 -97.35,195.20"/>
        <lane id=":J18_2_1" index="1" speed="6.63" length="3.77" shape="-100.74,196.99 -100.00,197.61 -99.19,198.05 -98.31,198.31 -97.35,198.40"/>
    </edge>
    <edge id=":J19_0" function="internal">
        <lane id=":J19_0_0" index="0" speed="4.20" length="1.26" shape="-97.35,-195.20 -97.67,-195.17 -97.96,-195.08 -98.23,-194.94 -98.48,-194.73"/>
        <lane id=":J19_0_1" index="1" speed="6.63" length="3.77" shape="-97.35,-198.40 -98.31,-198.31 -99.19,-198.05 -100.00,-197.61 -100.74,-196.99"/>
    </edge>
    <edge id=":J19_2" function="internal">
        <lane id=":J19_2_0" index="0" speed="9.84" length="8.80" shape="-105.27,-201.52 -103.54,-202.95 -101.65,-203.98 -99.58,-204.59 -97.35,-204.80"/>
        <lane id=":J19_2_1" index="1" speed="8.39" length="6.28" shape="-103.01,-199.26 -101.77,-200.28 -100.42,-201.01 -98.95,-201.45 -97.35,-201.60"/>
    </edge>
    <edge id=":J20_0" function="internal">
        <lane id=":J20_0_0" index="0" speed="4.20" length="1.26" shape="298.48,-194.73 298.23,-194.94 297.96,-195.08 297.67,-195.17 297.35,-195.20"/>
        <lane id=":J20_0_1" index="1" speed="6.63" length="3.77" shape="300.74,-196.99 300.00,-197.61 299.19,-198.05 298.31,-198.31 297.35,-198.40"/>
    </edge>
    <edge id=":J20_2" function="internal">
        <lane id=":J20_2_0" index="0" speed="9.84" length="8.80" shape="297.35,-204.80 299.58,-204.59 301.65,-203.98 303.54,-202.95 305.27,-201.52"/>
        <lane id=":J20_2_1" index="1" speed="8.39" length="6.28" shape="297.35,-201.60 298.95,-201.45 300.42,-201.01 301.77,-200.28 303.01,-199.26"/>
    </edge>
    <edge id=":J4_0" function="internal">
        <lane id=":J4_0_0" index="0" speed="13.89" length="21.30" shape="506.65,4.80 503.84,5.57 500.07,7.89 495.33,11.75 489.64,17.15"/>
    </edge>
    <edge id=":J4_1" function="internal">
        <lane id=":J4_1_0" index="0" speed="13.89" length="26.10" shape="506.65,4.80 480.55,4.80"/>
        <lane id=":J4_1_1" index="1" speed="13.89" length="26.10" shape="506.65,1.60 480.55,1.60"/>
    </edge>
    <edge id=":J4_3" function="internal">
        <lane id=":J4_3_0" index="0" speed="13.89" length="3.39" shape="506.65,1.60 503.34,0.88"/>
    </edge>
    <edge id=":J4_14" function="internal">
        <lane id=":J4_14_0" index="0" speed="13.89" length="22.87" shape="503.34,0.88 502.56,0.71 497.61,-1.96 491.79,-6.40 485.11,-12.62"/>
    </edge>
    <edge id=":J4_4" function="internal">
        <lane id=":J4_4_0" index="0" speed="13.89" length="21.30" shape="489.64,-17.15 495.33,-11.75 500.07,-7.89 503.84,-5.57 506.65,-4.80"/>
    </edge>
    <edge id=":J4_5" function="internal">
        <lane id=":J4_5_0" index="0" speed="12.13" length="33.95" shape="487.38,-14.89 492.96,-7.44 494.82,0.00 492.96,7.44 487.38,14.89"/>
    </edge>
    <edge id=":J4_6" function="internal">
        <lane id=":J4_6_0" index="0" speed="8.14" length="6.43" shape="487.38,-14.89 490.66,-9.35"/>
    </edge>
    <edge id=":J4_15" function="internal">
        <lane id=":J4_15_0" index="0" speed="8.14" length="17.13" shape="490.66,-9.35 490.31,-4.01 486.78,0.01 480.55,1.60"/>
    </edge>
    <edge id=":J4_7" function="internal">
        <lane id=":J4_7_0" index="0" speed="5.47" length="9.74" shape="480.55,-4.80 483.64,-5.15 485.06,-6.19 484.79,-7.93 482.85,-10.36"/>
    </edge>
    <edge id=":J4_8" function="internal">
        <lane id=":J4_8_0" index="0" speed="13.89" length="26.10" shape="480.55,-4.80 506.65,-4.80"/>
        <lane id=":J4_8_1" index="1" speed="13.89" length="26.10" shape="480.55,-1.60 506.65,-1.60"/>
    </edge>
    <edge id=":J4_10" function="internal">
        <lane id=":J4_10_0" index="0" speed="8.14" length="2.95" shape="480.55,-1.60 483.40,-0.87"/>
    </edge>
    <edge id=":J4_16" function="internal">
        <lane id=":J4_16_0" index="0" speed="8.14" length="20.62" shape="483.40,-0.87 486.78,-0.01 490.31,4.01 490.66,9.35 487.38,14.89"/>
    </edge>
    <edge id=":J4_11" function="internal">
        <lane id=":J4_11_0" index="0" speed="5.47" length="9.74" shape="482.85,10.36 484.79,7.93 485.06,6.19 483.64,5.15 480.55,4.80"/>
    </edge>
    <edge id=":J4_12" function="internal">
        <lane id=":J4_12_0" index="0" speed="10.71" length="26.26" shape="482.85,10.36 487.73,4.19 489.73,-1.70 488.86,-7.30 485.11,-12.62"/>
    </edge>
    <edge id=":J4_13" function="internal">
        <lane id=":J4_13_0" index="0" speed="13.89" length="3.87" shape="485.11,12.62 487.94,9.99"/>
    </edge>
    <edge id=":J4_17" function="internal">
        <lane id=":J4_17_0" index="0" speed="13.89" length="22.39" shape="487.94,9.99 491.79,6.40 497.61,1.96 502.56,-0.71 506.65,-1.60"/>
    </edge>
    <edge id=":J5_0" function="internal">
        <lane id=":J5_0_0" index="0" speed="13.89" length="0.10" shape="300.00,4.80 300.00,4.80"/>
        <lane id=":J5_0_1" index="1" speed="13.89" length="0.10" shape="300.00,1.60 300.00,1.60"/>
    </edge>
    <edge id=":J5_2" function="internal">
        <lane id=":J5_2_0" index="0" speed="13.89" length="0.10" shape="300.00,-4.80 300.00,-4.80"/>
        <lane id=":J5_2_1" index="1" speed="13.89" length="0.10" shape="300.00,-1.60 300.00,-1.60"/>
    </edge>
    <edge id=":J6_0" function="internal">
        <lane id=":J6_0_0" index="0" speed="6.51" length="9.03" shape="95.20,10.40 94.85,7.95 93.80,6.20 92.05,5.15 89.60,4.80"/>
    </edge>
    <edge id=":J6_1" function="internal">
        <lane id=":J6_1_0" index="0" speed="13.89" length="20.80" shape="95.20,10.40 95.20,-10.40"/>
        <lane id=":J6_1_1" index="1" speed="13.89" length="20.80" shape="98.40,10.40 98.40,-10.40"/>
    </edge>
    <edge id=":J6_3" function="internal">
        <lane id=":J6_3_0" index="0" speed="9.26" length="5.01" shape="98.40,10.40 99.11,5.44"/>
    </edge>
    <edge id=":J6_16" function="internal">
        <lane id=":J6_16_0" index="0" speed="9.26" length="14.34" shape="99.11,5.44 99.15,5.15 101.40,1.40 105.15,-0.85 110.40,-1.60"/>
    </edge>
    <edge id=":J6_4" function="internal">
        <lane id=":J6_4_0" index="0" speed="6.51" length="9.03" shape="110.40,4.80 107.95,5.15 106.20,6.20 105.15,7.95 104.80,10.40"/>
    </edge>
    <edge id=":J6_5" function="internal">
        <lane id=":J6_5_0" index="0" speed="13.89" length="20.80" shape="110.40,4.80 89.60,4.80"/>
        <lane id=":J6_5_1" index="1" speed="13.89" length="20.80" shape="110.40,1.60 89.60,1.60"/>
    </edge>
    <edge id=":J6_7" function="internal">
        <lane id=":J6_7_0" index="0" speed="9.26" length="2.51" shape="110.40,1.60 107.91,1.24"/>
    </edge>
    <edge id=":J6_17" function="internal">
        <lane id=":J6_17_0" index="0" speed="9.26" length="16.84" shape="107.91,1.24 105.15,0.85 101.40,-1.40 99.15,-5.15 98.40,-10.40"/>
    </edge>
    <edge id=":J6_8" function="internal">
        <lane id=":J6_8_0" index="0" speed="6.51" length="9.03" shape="104.80,-10.40 105.15,-7.95 106.20,-6.20 107.95,-5.15 110.40,-4.80"/>
    </edge>
    <edge id=":J6_9" function="internal">
        <lane id=":J6_9_0" index="0" speed="13.89" length="20.80" shape="104.80,-10.40 104.80,10.40"/>
        <lane id=":J6_9_1" index="1" speed="13.89" length="20.80" shape="101.60,-10.40 101.60,10.40"/>
    </edge>
    <edge id=":J6_11" function="internal">
        <lane id=":J6_11_0" index="0" speed="9.26" length="5.01" shape="101.60,-10.40 100.89,-5.44"/>
    </edge>
    <edge id=":J6_18" function="internal">
        <lane id=":J6_18_0" index="0" speed="9.26" length="14.34" shape="100.89,-5.44 100.85,-5.15 98.60,-1.40 94.85,0.85 89.60,1.60"/>
    </edge>
    <edge id=":J6_12" function="internal">
        <lane id=":J6_12_0" index="0" speed="6.51" length="9.03" shape="89.60,-4.80 92.05,-5.15 93.80,-6.20 94.85,-7.95 95.20,-10.40"/>
    </edge>
    <edge id=":J6_13" function="internal">
        <lane id=":J6_13_0" index="0" speed="13.89" length="20.80" shape="89.60,-4.80 110.40,-4.80"/>
        <lane id=":J6_13_1" index="1" speed="13.89" length="20.80" shape="89.60,-1.60 110.40,-1.60"/>
    </edge>
    <edge id=":J6_15" function="internal">
        <lane id=":J6_15_0" index="0" speed="9.26" length="2.51" shape="89.60,-1.60 92.09,-1.24"/>
    </edge>
    <edge id=":J6_19" function="internal">
        <lane id=":J6_19_0" index="0" speed="9.26" length="16.84" shape="92.09,-1.24 94.85,-0.85 98.60,1.40 100.85,5.15 101.60,10.40"/>
    </edge>
    <edge id=":J7_0" function="internal">
        <lane id=":J7_0_0" index="0" speed="13.89" length="0.10" shape="-100.00,4.80 -100.00,4.80"/>
        <lane id=":J7_0_1" index="1" speed="13.89" length="0.10" shape="-100.00,1.60 -100.00,1.60"/>
    </edge>
    <edge id=":J7_2" function="internal">
        <lane id=":J7_2_0" index="0" speed="13.89" length="0.10" shape="-100.00,-4.80 -100.00,-4.80"/>
        <lane id=":J7_2_1" index="1" speed="13.89" length="0.10" shape="-100.00,-1.60 -100.00,-1.60"/>
    </edge>
    <edge id=":J8_0" function="internal">
        <lane id=":J8_0_0" index="0" speed="13.89" length="21.30" shape="-289.64,17.15 -295.33,11.75 -300.07,7.89 -303.84,5.57 -306.65,4.80"/>
    </edge>
    <edge id=":J8_1" function="internal">
        <lane id=":J8_1_0" index="0" speed="12.99" length="39.11" shape="-289.64,17.15 -296.07,8.57 -298.21,-0.00 -296.07,-8.57 -289.64,-17.15"/>
        <lane id=":J8_1_1" index="1" speed="12.13" length="33.95" shape="-287.38,14.89 -292.96,7.44 -294.82,-0.00 -292.96,-7.44 -287.38,-14.89"/>
    </edge>
    <edge id=":J8_3" function="internal">
        <lane id=":J8_3_0" index="0" speed="8.14" length="23.57" shape="-287.38,14.89 -290.66,9.35 -290.31,4.01 -286.78,-0.01 -280.55,-1.60"/>
    </edge>
    <edge id=":J8_4" function="internal">
        <lane id=":J8_4_0" index="0" speed="5.47" length="9.74" shape="-280.55,4.80 -283.64,5.15 -285.06,6.19 -284.79,7.93 -282.85,10.36"/>
    </edge>
    <edge id=":J8_5" function="internal">
        <lane id=":J8_5_0" index="0" speed="13.89" length="26.10" shape="-280.55,4.80 -306.65,4.80"/>
        <lane id=":J8_5_1" index="1" speed="13.89" length="26.10" shape="-280.55,1.60 -306.65,1.60"/>
    </edge>
    <edge id=":J8_7" function="internal">
        <lane id=":J8_7_0" index="0" speed="8.14" length="2.95" shape="-280.55,1.60 -283.40,0.87"/>
    </edge>
    <edge id=":J8_16" function="internal">
        <lane id=":J8_16_0" index="0" speed="8.14" length="20.62" shape="-283.40,0.87 -286.78,0.01 -290.31,-4.01 -290.66,-9.35 -287.38,-14.89"/>
    </edge>
    <edge id=":J8_8" function="internal">
        <lane id=":J8_8_0" index="0" speed="5.47" length="9.74" shape="-282.85,-10.36 -284.79,-7.93 -285.06,-6.19 -283.64,-5.15 -280.55,-4.80"/>
    </edge>
    <edge id=":J8_9" function="internal">
        <lane id=":J8_9_0" index="0" speed="10.18" length="23.63" shape="-282.85,-10.36 -286.74,-5.18 -288.03,-0.00 -286.74,5.18 -282.85,10.36"/>
        <lane id=":J8_9_1" index="1" speed="11.20" length="28.79" shape="-285.11,-12.62 -289.85,-6.31 -291.43,0.00 -289.85,6.31 -285.11,12.62"/>
    </edge>
    <edge id=":J8_11" function="internal">
        <lane id=":J8_11_0" index="0" speed="13.89" length="26.26" shape="-285.11,-12.62 -291.79,-6.40 -297.61,-1.96 -302.56,0.71 -306.65,1.60"/>
    </edge>
    <edge id=":J8_12" function="internal">
        <lane id=":J8_12_0" index="0" speed="13.89" length="21.30" shape="-306.65,-4.80 -303.84,-5.57 -300.07,-7.89 -295.33,-11.75 -289.64,-17.15"/>
    </edge>
    <edge id=":J8_13" function="internal">
        <lane id=":J8_13_0" index="0" speed="13.89" length="26.10" shape="-306.65,-4.80 -280.55,-4.80"/>
        <lane id=":J8_13_1" index="1" speed="13.89" length="26.10" shape="-306.65,-1.60 -280.55,-1.60"/>
    </edge>
    <edge id=":J8_15" function="internal">
        <lane id=":J8_15_0" index="0" speed="13.89" length="3.39" shape="-306.65,-1.60 -303.34,-0.88"/>
    </edge>
    <edge id=":J8_17" function="internal">
        <lane id=":J8_17_0" index="0" speed="13.89" length="22.87" shape="-303.34,-0.88 -302.56,-0.71 -297.61,1.96 -291.79,6.40 -285.11,12.62"/>
    </edge>

    <edge id="-E0" from="J1" to="J0" priority="-1" shape="100.00,200.00 100.00,400.00 100.00,400.00">
        <lane id="-E0_0" index="0" speed="13.89" length="189.60" shape="104.80,210.40 104.80,400.00"/>
        <lane id="-E0_1" index="1" speed="13.89" length="189.60" shape="101.60,210.40 101.60,400.00"/>
    </edge>
    <edge id="-E10" from="J6" to="J1" priority="-1">
        <lane id="-E10_0" index="0" speed="13.89" length="179.20" shape="104.80,10.40 104.80,189.60"/>
        <lane id="-E10_1" index="1" speed="13.89" length="179.20" shape="101.60,10.40 101.60,189.60"/>
    </edge>
    <edge id="-E2" from="J4" to="J3" priority="-1">
        <lane id="-E2_0" index="0" speed="13.89" length="193.35" shape="506.65,-4.80 700.00,-4.80"/>
        <lane id="-E2_1" index="1" speed="13.89" length="193.35" shape="506.65,-1.60 700.00,-1.60"/>
    </edge>
    <edge id="-E24" from="J17" to="J4" priority="-1">
        <lane id="-E24_0" index="0" speed="13.89" length="260.74" shape="298.48,194.73 482.85,10.36"/>
        <lane id="-E24_1" index="1" speed="13.89" length="260.74" shape="300.74,196.99 485.11,12.62"/>
    </edge>
    <edge id="-E25" from="J1" to="J17" priority="-1">
        <lane id="-E25_0" index="0" speed="13.89" length="186.95" shape="110.40,195.20 297.35,195.20"/>
        <lane id="-E25_1" index="1" speed="13.89" length="186.95" shape="110.40,198.40 297.35,198.40"/>
    </edge>
    <edge id="-E26" from="J18" to="J1" priority="-1">
        <lane id="-E26_0" index="0" speed="13.89" length="186.95" shape="-97.35,195.20 89.60,195.20"/>
        <lane id="-E26_1" index="1" speed="13.89" length="186.95" shape="-97.35,198.40 89.60,198.40"/>
    </edge>
    <edge id="-E27" from="J8" to="J18" priority="-1">
        <lane id="-E27_0" index="0" speed="13.89" length="260.74" shape="-282.85,10.36 -98.48,194.73"/>
        <lane id="-E27_1" index="1" speed="13.89" length="260.74" shape="-285.11,12.62 -100.74,196.99"/>
    </edge>
    <edge id="-E28" from="J19" to="J8" priority="-1">
        <lane id="-E28_0" index="0" speed="13.89" length="260.74" shape="-98.48,-194.73 -282.85,-10.36"/>
        <lane id="-E28_1" index="1" speed="13.89" length="260.74" shape="-100.74,-196.99 -285.11,-12.62"/>
    </edge>
    <edge id="-E29" from="J10" to="J19" priority="-1">
        <lane id="-E29_0" index="0" speed="13.89" length="186.95" shape="89.60,-195.20 -97.35,-195.20"/>
        <lane id="-E29_1" index="1" speed="13.89" length="186.95" shape="89.60,-198.40 -97.35,-198.40"/>
    </edge>
    <edge id="-E3" from="J5" to="J4" priority="-1">
        <lane id="-E3_0" index="0" speed="13.89" length="180.55" shape="300.00,-4.80 480.55,-4.80"/>
        <lane id="-E3_1" index="1" speed="13.89" length="180.55" shape="300.00,-1.60 480.55,-1.60"/>
    </edge>
    <edge id="-E30" from="J20" to="J10" priority="-1">
        <lane id="-E30_0" index="0" speed="13.89" length="186.95" shape="297.35,-195.20 110.40,-195.20"/>
        <lane id="-E30_1" index="1" speed="13.89" length="186.95" shape="297.35,-198.40 110.40,-198.40"/>
    </edge>
    <edge id="-E31" from="J4" to="J20" priority="-1">
        <lane id="-E31_0" index="0" speed="13.89" length="260.74" shape="482.85,-10.36 298.48,-194.73"/>
        <lane id="-E31_1" index="1" speed="13.89" length="260.74" shape="485.11,-12.62 300.74,-196.99"/>
    </edge>
    <edge id="-E4" from="J6" to="J5" priority="-1">
        <lane id="-E4_0" index="0" speed="13.89" length="189.60" shape="110.40,-4.80 300.00,-4.80"/>
        <lane id="-E4_1" index="1" speed="13.89" length="189.60" shape="110.40,-1.60 300.00,-1.60"/>
    </edge>
    <edge id="-E5" from="J7" to="J6" priority="-1">
        <lane id="-E5_0" index="0" speed="13.89" length="189.60" shape="-100.00,-4.80 89.60,-4.80"/>
        <lane id="-E5_1" index="1" speed="13.89" length="189.60" shape="-100.00,-1.60 89.60,-1.60"/>
    </edge>
    <edge id="-E6" from="J8" to="J7" priority="-1">
        <lane id="-E6_0" index="0" speed="13.89" length="180.55" shape="-280.55,-4.80 -100.00,-4.80"/>
        <lane id="-E6_1" index="1" speed="13.89" length="180.55" shape="-280.55,-1.60 -100.00,-1.60"/>
    </edge>
    <edge id="-E7" from="J9" to="J8" priority="-1">
        <lane id="-E7_0" index="0" speed="13.89" length="193.35" shape="-500.00,-4.80 -306.65,-4.80"/>
        <lane id="-E7_1" index="1" speed="13.89" length="193.35" shape="-500.00,-1.60 -306.65,-1.60"/>
    </edge>
    <edge id="-E8" from="J10" to="J6" priority="-1">
        <lane id="-E8_0" index="0" speed="13.89" length="179.20" shape="104.80,-189.60 104.80,-10.40"/>
        <lane id="-E8_1" index="1" speed="13.89" length="179.20" shape="101.60,-189.60 101.60,-10.40"/>
    </edge>
    <edge id="-E9" from="J11" to="J10" priority="-1">
        <lane id="-E9_0" index="0" speed="13.89" length="189.60" shape="104.80,-400.00 104.80,-210.40"/>
        <lane id="-E9_1" index="1" speed="13.89" length="189.60" shape="101.60,-400.00 101.60,-210.40"/>
    </edge>
    <edge id="E0" from="J0" to="J1" priority="-1">
        <lane id="E0_0" index="0" speed="13.89" length="189.60" shape="95.20,400.00 95.20,210.40"/>
        <lane id="E0_1" index="1" speed="13.89" length="189.60" shape="98.40,400.00 98.40,210.40"/>
    </edge>
    <edge id="E10" from="J1" to="J6" priority="-1">
        <lane id="E10_0" index="0" speed="13.89" length="179.20" shape="95.20,189.60 95.20,10.40"/>
        <lane id="E10_1" index="1" speed="13.89" length="179.20" shape="98.40,189.60 98.40,10.40"/>
    </edge>
    <edge id="E2" from="J3" to="J4" priority="-1">
        <lane id="E2_0" index="0" speed="13.89" length="193.35" shape="700.00,4.80 506.65,4.80"/>
        <lane id="E2_1" index="1" speed="13.89" length="193.35" shape="700.00,1.60 506.65,1.60"/>
    </edge>
    <edge id="E24" from="J4" to="J17" priority="-1">
        <lane id="E24_0" index="0" speed="13.89" length="260.74" shape="489.64,17.15 305.27,201.52"/>
        <lane id="E24_1" index="1" speed="13.89" length="260.74" shape="487.38,14.89 303.01,199.26"/>
    </edge>
    <edge id="E25" from="J17" to="J1" priority="-1">
        <lane id="E25_0" index="0" speed="13.89" length="186.95" shape="297.35,204.80 110.40,204.80"/>
        <lane id="E25_1" index="1" speed="13.89" length="186.95" shape="297.35,201.60 110.40,201.60"/>
    </edge>
    <edge id="E26" from="J1" to="J18" priority="-1">
        <lane id="E26_0" index="0" speed="13.89" length="186.95" shape="89.60,204.80 -97.35,204.80"/>
        <lane id="E26_1" index="1" speed="13.89" length="186.95" shape="89.60,201.60 -97.35,201.60"/>
    </edge>
    <edge id="E27" from="J18" to="J8" priority="-1">
        <lane id="E27_0" index="0" speed="13.89" length="260.74" shape="-105.27,201.52 -289.64,17.15"/>
        <lane id="E27_1" index="1" speed="13.89" length="260.74" shape="-103.01,199.26 -287.38,14.89"/>
    </edge>
    <edge id="E28" from="J8" to="J19" priority="-1">
        <lane id="E28_0" index="0" speed="13.89" length="260.74" shape="-289.64,-17.15 -105.27,-201.52"/>
        <lane id="E28_1" index="1" speed="13.89" length="260.74" shape="-287.38,-14.89 -103.01,-199.26"/>
    </edge>
    <edge id="E29" from="J19" to="J10" priority="-1">
        <lane id="E29_0" index="0" speed="13.89" length="186.95" shape="-97.35,-204.80 89.60,-204.80"/>
        <lane id="E29_1" index="1" speed="13.89" length="186.95" shape="-97.35,-201.60 89.60,-201.60"/>
    </edge>
    <edge id="E3" from="J4" to="J5" priority="-1">
        <lane id="E3_0" index="0" speed="13.89" length="180.55" shape="480.55,4.80 300.00,4.80"/>
        <lane id="E3_1" index="1" speed="13.89" length="180.55" shape="480.55,1.60 300.00,1.60"/>
    </edge>
    <edge id="E30" from="J10" to="J20" priority="-1">
        <lane id="E30_0" index="0" speed="13.89" length="186.95" shape="110.40,-204.80 297.35,-204.80"/>
        <lane id="E30_1" index="1" speed="13.89" length="186.95" shape="110.40,-201.60 297.35,-201.60"/>
    </edge>
    <edge id="E31" from="J20" to="J4" priority="-1">
        <lane id="E31_0" index="0" speed="13.89" length="260.74" shape="305.27,-201.52 489.64,-17.15"/>
        <lane id="E31_1" index="1" speed="13.89" length="260.74" shape="303.01,-199.26 487.38,-14.89"/>
    </edge>
    <edge id="E4" from="J5" to="J6" priority="-1">
        <lane id="E4_0" index="0" speed="13.89" length="189.60" shape="300.00,4.80 110.40,4.80"/>
        <lane id="E4_1" index="1" speed="13.89" length="189.60" shape="300.00,1.60 110.40,1.60"/>
    </edge>
    <edge id="E5" from="J6" to="J7" priority="-1">
        <lane id="E5_0" index="0" speed="13.89" length="189.60" shape="89.60,4.80 -100.00,4.80"/>
        <lane id="E5_1" index="1" speed="13.89" length="189.60" shape="89.60,1.60 -100.00,1.60"/>
    </edge>
    <edge id="E6" from="J7" to="J8" priority="-1">