<routes>
        <vType id="typeWE" accel="2.5" decel="4.5" sigma="0.5" length="5" minGap="2.5" maxSpeed="50" guiShape="passenger"/>
        <vType id="typeNS" accel="0.8" decel="4.5" sigma="0.5" length="7" minGap="3" maxSpeed="25" guiShape="bus"/>

        <route id="EtoW" edges="EW1 EW2" />
        <route id="WtoE" edges="WE1 WE2" />
        <route id="NtoS" edges="NS1 NS2" />
        <route id="StoN" edges="SN1 SN2" />
        <route id="EtoN" edges="EW1 SN2" />
        <route id="EtoS" edges="EW1 NS2" />
        <route id="WtoN" edges="WE1 SN2" />
        <route id="WtoS" edges="WE1 NS2" />
        <route id="NtoE" edges="NS1 WE2" />
        <route id="NtoW" edges="NS1 EW2" />
        <route id="StoE" edges="SN1 WE2" />
        <route id="StoW" edges="SN1 EW2" />
        
    <vehicle id="NS_0" type="typeWE" route="NtoS" depart="3" color="1,1,0"/>
    <vehicle id="EN_1" type="typeWE" route="EtoN" depart="3" color="1,0,0"/>
    <vehicle id="NE_2" type="typeWE" route="NtoE" depart="5" color="1,1,0"/>
    <vehicle id="ES_3" type="typeWE" route="EtoS" depart="6" color="1,0,0"/>
    <vehicle id="NE_4" type="typeWE" route="NtoE" depart="12" color="1,1,0"/>
    <vehicle id="EN_5" type="typeWE" route="EtoN" depart="13" color="1,0,0"/>
    <vehicle id="NE_6" type="typeWE" route="NtoE" depart="15" color="1,1,0"/>
    <vehicle id="WS_7" type="typeWE" route="WtoS" depart="19" color="1,0,1"/>
    <vehicle id="ES_8" type="typeWE" route="EtoS" depart="29" color="1,0,0"/>
    <vehicle id="EW_9" type="typeWE" route="EtoW" depart="30" color="1,0,0" />
    <vehicle id="NW_10" type="typeWE" route="NtoW" depart="31" color="1,1,0"/>
    <vehicle id="SWt_11" type="typeWE" route="StoW" depart="31" color="0,1,0" />
    <vehicle id="EW_12" type="typeWE" route="EtoW" depart="34" color="1,0,0" />
    <vehicle id="NS_13" type="typeWE" route="NtoS" depart="36" color="1,1,0"/>
    <vehicle id="WN_14" type="typeWE" route="WtoN" depart="36" color="1,0,1"/>
    <vehicle id="SN_15" type="typeWE" route="StoN" depart="38" color="0,1,0"/>
    <vehicle id="SE_16" type="typeWE" route="StoE" depart="38" color="0,1,0" />
    <vehicle id="SWt_17" type="typeWE" route="StoW" depart="38" color="0,1,0" />
    <vehicle id="WS_18" type="typeWE" route="WtoS" depart="40" color="1,0,1"/>
    <vehicle id="EN_19" type="typeWE" route="EtoN" depart="41" color="1,0,0"/>
    <vehicle id="NS_20" type="typeWE" route="NtoS" depart="42" color="1,1,0"/>
    <vehicle id="EN_21" type="typeWE" route="EtoN" depart="42" color="1,0,0"/>
    <vehicle id="EW_22" type="typeWE" route="EtoW" depart="49" color="1,0,0" />
    <vehicle id="ES_23" type="typeWE" route="EtoS" depart="49" color="1,0,0"/>
    <vehicle id="EN_24" type="typeWE" route="EtoN" depart="53" color="1,0,0"/>
    <vehicle id="NW_25" type="typeWE" route="NtoW" depart="55" color="1,1,0"/>
    <vehicle id="ES_26" type="typeWE" route="EtoS" depart="56" color="1,0,0"/>
    <vehicle id="SN_27" type="typeWE" route="StoN" depart="66" color="0,1,0"/>
    <vehicle id="EN_28" type="typeWE" route="EtoN" depart="66" color="1,0,0"/>
    <vehicle id="WN_29" type="typeWE" route="WtoN" depart="69" color="1,0,1"/>
    <vehicle id="WE_30" type="typeWE" route="WtoE" depart="74" color="1,0,1"/>
    <vehicle id="SE_31" type="typeWE" route="StoE" depart="80" color="0,1,0" />
    <vehicle id="NE_32" type="typeWE" route="NtoE" depart="85" color="1,1,0"/>
    <vehicle id="WS_33" type="typeWE" route="WtoS" depart="85" color="1,0,1"/>
    <vehicle id="NW_34" type="typeWE" route="NtoW" depart="89" color="1,1,0"/>
    <vehicle id="EW_35" type="typeWE" route="EtoW" depart="91" color="1,0,0" />
    <vehicle id="ES_36" type="typeWE" route="EtoS" depart="91" color="1,0,0"/>
    <vehicle id="ES_37" type="typeWE" route="EtoS" depart="92" color="1,0,0"/>
    <vehicle id="NW_38" type="typeWE" route="NtoW" depart="92" color="1,1,0"/>
    <vehicle id="SN_39" type="typeWE" route="StoN" depart="93" color="0,1,0"/>
    <vehicle id="SE_40" type="typeWE" route="StoE" depart="94" color="0,1,0" />
    <vehicle id="WN_41" type="typeWE" route="WtoN" depart="97" color="1,0,1"/>
    <vehicle id="EW_42" type="typeWE" route="EtoW" depart="102" color="1,0,0" />
    <vehicle id="WE_43" type="typeWE" route="WtoE" depart="105" color="1,0,1"/>
    <vehicle id="WN_44" type="typeWE" route="WtoN" depart="111" color="1,0,1"/>
    <vehicle id="NS_45" type="typeWE" route="NtoS" depart="113" color="1,1,0"/>
    <vehicle id="EN_46" type="typeWE" route="EtoN" depart="117" color="1,0,0"/>
    <vehicle id="ES_47" type="typeWE" route="EtoS" depart="117" color="1,0,0"/>
    <vehicle id="NW_48" type="typeWE" route="NtoW" depart="119" color="1,1,0"/>
    <vehicle id="SN_49" type="typeWE" route="StoN" depart="120" color="0,1,0"/>
    <vehicle id="WS_50" type="typeWE" route="WtoS" depart="122" color="1,0,1"/>
    <vehicle id="EN_51" type="typeWE" route="EtoN" depart="131" color="1,0,0"/>
    <vehicle id="WS_52" type="typeWE" route="WtoS" depart="131" color="1,0,1"/>
    <vehicle id="EW_53" type="typeWE" route="EtoW" depart="133" color="1,0,0" />
    <vehicle id="ES_54" type="typeWE" route="EtoS" depart="134" color="1,0,0"/>
    <vehicle id="SWt_55" type="typeWE" route="StoW" depart="139" color="0,1,0" />
    <vehicle id="NE_56" type="typeWE" route="NtoE" depart="140" color="1,1,0"/>
    <vehicle id="WS_57" type="typeWE" route="WtoS" depart="140" color="1,0,1"/>
    <vehicle id="WS_58" type="typeWE" route="WtoS" depart="141" color="1,0,1"/>
    <vehicle id="WE_59" type="typeWE" route="WtoE" depart="147" color="1,0,1"/>
    <vehicle id="NS_60" type="typeWE" route="NtoS" depart="152" color="1,1,0"/>
    <vehicle id="SWt_61" type="typeWE" route="StoW" depart="157" color="0,1,0" />
    <vehicle id="NE_62" type="typeWE" route="NtoE" depart="158" color="1,1,0"/>
    <vehicle id="NE_63" type="typeWE" route="NtoE" depart="161" color="1,1,0"/>
    <vehicle id="ES_64" type="typeWE" route="EtoS" depart="171" color="1,0,0"/>
    <vehicle id="SWt_65" type="typeWE" route="StoW" depart="171" color="0,1,0" />
    <vehicle id="SE_66" type="typeWE" route="StoE" depart="172" color="0,1,0" />
    <vehicle id="EN_67" type="typeWE" route="EtoN" depart="176" color="1,0,0"/>
    <vehicle id="SWt_68" type="typeWE" route="StoW" depart="182" color="0,1,0" />
    <vehicle id="SWt_69" type="typeWE" route="StoW" depart="184" color="0,1,0" />
    <vehicle id="EN_70" type="typeWE" route="EtoN" depart="187" color="1,0,0"/>
    <vehicle id="NS_71" type="typeWE" route="NtoS" depart="189" color="1,1,0"/>
    <vehicle id="WS_72" type="typeWE" route="WtoS" depart="197" color="1,0,1"/>
    <vehicle id="EW_73" type="typeWE" route="EtoW" depart="198" color="1,0,0" />
    <vehicle id="WN_74" type="typeWE" route="WtoN" depart="200" color="1,0,1"/>
    <vehicle id="WN_75" type="typeWE" route="WtoN" depart="202" color="1,0,1"/>
    <vehicle id="SN_76" type="typeWE" route="StoN" depart="204" color="0,1,0"/>
    <vehicle id="NW_77" type="typeWE" route="NtoW" depart="205" color="1,1,0"/>
    <vehicle id="EN_78" type="typeWE" route="EtoN" depart="206" color="1,0,0"/>
    <vehicle id="WS_79" type="typeWE" route="WtoS" depart="209" color="1,0,1"/>
    <vehicle id="EN_80" type="typeWE" route="EtoN" depart="210" color="1,0,0"/>
    <vehicle id="EW_81" type="typeWE" route="EtoW" depart="211" color="1,0,0" />
    <vehicle id="EN_82" type="typeWE" route="EtoN" depart="211" color="1,0,0"/>
    <vehicle id="EN_83" type="typeWE" route="EtoN" depart="217" color="1,0,0"/>
    <vehicle id="EN_84" type="typeWE" route="EtoN" depart="218" color="1,0,0"/>
    <vehicle id="WE_85" type="typeWE" route="WtoE" depart="225" color="1,0,1"/>
    <vehicle id="EW_86" type="typeWE" route="EtoW" depart="228" color="1,0,0" />
    <vehicle id="EN_87" type="typeWE" route="EtoN" depart="235" color="1,0,0"/>
    <vehicle id="EN_88" type="typeWE" route="EtoN" depart="236" color="1,0,0"/>
    <vehicle id="EN_89" type="typeWE" route="EtoN" depart="240" color="1,0,0"/>
    <vehicle id="NE_90" type="typeWE" route="NtoE" depart="247" color="1,1,0"/>
    <vehicle id="ES_91" type="typeWE" route="EtoS" depart="250" color="1,0,0"/>
    <vehicle id="EW_92" type="typeWE" route="EtoW" depart="251" color="1,0,0" />
    <vehicle id="EN_93" type="typeWE" route="EtoN" depart="253" color="1,0,0"/>
    <vehicle id="EN_94" type="typeWE" route="EtoN" depart="256" color="1,0,0"/>
    <vehicle id="SWt_95" type="typeWE" route="StoW" depart="258" color="0,1,0" />
    <vehicle id="EW_96" type="typeWE" route="EtoW" depart="273" color="1,0,0" />
    <vehicle id="SE_97" type="typeWE" route="StoE" depart="274" color="0,1,0" />
    <vehicle id="EW_98" type="typeWE" route="EtoW" depart="276" color="1,0,0" />
    <vehicle id="WN_99" type="typeWE" route="WtoN" depart="278" color="1,0,1"/>
    <vehicle id="EW_100" type="typeWE" route="EtoW" depart="282" color="1,0,0" />
    <vehicle id="EW_101" type="typeWE" route="EtoW" depart="286" color="1,0,0" />
    <vehicle id="EN_102" type="typeWE" route="EtoN" depart="289" color="1,0,0"/>
    <vehicle id="SN_103" type="typeWE" route="StoN" depart="291" color="0,1,0"/>
    <vehicle id="WS_104" type="typeWE" route="WtoS" depart="291" color="1,0,1"/>
    <vehicle id="NS_105" type="typeWE" route="NtoS" depart="294" color="1,1,0"/>
    <vehicle id="WN_106" type="typeWE" route="WtoN" depart="294" color="1,0,1"/>
    <vehicle id="NS_107" type="typeWE" route="NtoS" depart="295" color="1,1,0"/>
    <vehicle id="EW_108" type="typeWE" route="EtoW" depart="296" color="1,0,0" />
    <vehicle id="EN_109" type="typeWE" route="EtoN" depart="298" color="1,0,0"/>
    <vehicle id="ES_110" type="typeWE" route="EtoS" depart="298" color="1,0,0"/>
    <vehicle id="WE_111" type="typeWE" route="WtoE" depart="300" color="1,0,1"/>
    <vehicle id="EN_112" type="typeWE" route="EtoN" depart="308" color="1,0,0"/>
    <vehicle id="NW_113" type="typeWE" route="NtoW" depart="319" color="1,1,0"/>
    <vehicle id="SE_114" type="typeWE" route="StoE" depart="319" color="0,1,0" />
    <vehicle id="SN_115" type="typeWE" route="StoN" depart="323" color="0,1,0"/>
    <vehicle id="SN_116" type="typeWE" route="StoN" depart="324" color="0,1,0"/>
    <vehicle id="ES_117" type="typeWE" route="EtoS" depart="328" color="1,0,0"/>
    <vehicle id="EN_118" type="typeWE" route="EtoN" depart="329" color="1,0,0"/>
    <vehicle id="EN_119" type="typeWE" route="EtoN" depart="332" color="1,0,0"/>
    <vehicle id="SWt_120" type="typeWE" route="StoW" depart="337" color="0,1,0" />
    <vehicle id="EW_121" type="typeWE" route="EtoW" depart="342" color="1,0,0" />
    <vehicle id="NE_122" type="typeWE" route="NtoE" depart="342" color="1,1,0"/>
    <vehicle id="NE_123" type="typeWE" route="NtoE" depart="346" color="1,1,0"/>
    <vehicle id="SWt_124" type="typeWE" route="StoW" depart="355" color="0,1,0" />
    <vehicle id="EN_125" type="typeWE" route="EtoN" depart="357" color="1,0,0"/>
    <vehicle id="EN_126" type="typeWE" route="EtoN" depart="362" color="1,0,0"/>
    <vehicle id="NE_127" type="typeWE" route="NtoE" depart="366" color="1,1,0"/>
    <vehicle id="EW_128" type="typeWE" route="EtoW" depart="369" color="1,0,0" />
    <vehicle id="ES_129" type="typeWE" route="EtoS" depart="373" color="1,0,0"/>
    <vehicle id="ES_130" type="typeWE" route="EtoS" depart="374" color="1,0,0"/>
    <vehicle id="EW_131" type="typeWE" route="EtoW" depart="378" color="1,0,0" />
    <vehicle id="EW_132" type="typeWE" route="EtoW" depart="381" color="1,0,0" />
    <vehicle id="ES_133" type="typeWE" route="EtoS" depart="382" color="1,0,0"/>
    <vehicle id="WS_134" type="typeWE" route="WtoS" depart="383" color="1,0,1"/>
    <vehicle id="NW_135" type="typeWE" route="NtoW" depart="384" color="1,1,0"/>
    <vehicle id="WE_136" type="typeWE" route="WtoE" depart="395" color="1,0,1"/>
    <vehicle id="EW_137" type="typeWE" route="EtoW" depart="395" color="1,0,0" />
    <vehicle id="ES_138" type="typeWE" route="EtoS" depart="397" color="1,0,0"/>
    <vehicle id="WN_139" type="typeWE" route="WtoN" depart="400" color="1,0,1"/>
    <vehicle id="WE_140" type="typeWE" route="WtoE" depart="401" color="1,0,1"/>
    <vehicle id="WS_141" type="typeWE" route="WtoS" depart="403" color="1,0,1"/>
    <vehicle id="SE_142" type="typeWE" route="StoE" depart="404" color="0,1,0" />
    <vehicle id="NS_143" type="typeWE" route="NtoS" depart="407" color="1,1,0"/>
    <vehicle id="SN_144" type="typeWE" route="StoN" depart="407" color="0,1,0"/>
    <vehicle id="NE_145" type="typeWE" route="NtoE" depart="415" color="1,1,0"/>
    <vehicle id="NW_146" type="typeWE" route="NtoW" depart="416" color="1,1,0"/>
    <vehicle id="NS_147" type="typeWE" route="NtoS" depart="430" color="1,1,0"/>
    <vehicle id="SE_148" type="typeWE" route="StoE" depart="430" color="0,1,0" />
    <vehicle id="WN_149" type="typeWE" route="WtoN" depart="432" color="1,0,1"/>
    <vehicle id="EW_150" type="typeWE" route="EtoW" depart="433" color="1,0,0" />
    <vehicle id="ES_151" type="typeWE" route="EtoS" depart="434" color="1,0,0"/>
    <vehicle id="NW_152" type="typeWE" route="NtoW" depart="435" color="1,1,0"/>
    <vehicle id="EW_153" type="typeWE" route="EtoW" depart="436" color="1,0,0" />
    <vehicle id="SWt_154" type="typeWE" route="StoW" depart="438" color="0,1,0" />
    <vehicle id="EN_155" type="typeWE" route="EtoN" depart="441" color="1,0,0"/>
    <vehicle id="EN_156" type="typeWE" route="EtoN" depart="446" color="1,0,0"/>
    <vehicle id="WN_157" type="typeWE" route="WtoN" depart="450" color="1,0,1"/>
    <vehicle id="NW_158" type="typeWE" route="NtoW" depart="454" color="1,1,0"/>
    <vehicle id="WS_159" type="typeWE" route="WtoS" depart="458" color="1,0,1"/>
    <vehicle id="EN_160" type="typeWE" route="EtoN" depart="459" color="1,0,0"/>
    <vehicle id="NS_161" type="typeWE" route="NtoS" depart="460" color="1,1,0"/>
    <vehicle id="EW_162" type="typeWE" route="EtoW" depart="465" color="1,0,0" />
    <vehicle id="ES_163" type="typeWE" route="EtoS" depart="465" color="1,0,0"/>
    <vehicle id="NW_164" type="typeWE" route="NtoW" depart="466" color="1,1,0"/>
    <vehicle id="ES_165" type="typeWE" route="EtoS" depart="471" color="1,0,0"/>
    <vehicle id="SWt_166" type="typeWE" route="StoW" depart="471" color="0,1,0" />
    <vehicle id="ES_167" type="typeWE" route="EtoS" depart="473" color="1,0,0"/>
    <vehicle id="WN_168" type="typeWE" route="WtoN" depart="476" color="1,0,1"/>
    <vehicle id="NS_169" type="typeWE" route="NtoS" depart="477" color="1,1,0"/>
    <vehicle id="WN_170" type="typeWE" route="WtoN" depart="477" color="1,0,1"/>
    <vehicle id="SN_171" type="typeWE" route="StoN" depart="479" color="0,1,0"/>
    <vehicle id="SWt_172" type="typeWE" route="StoW" depart="480" color="0,1,0" />
    <vehicle id="ES_173" type="typeWE" route="EtoS" depart="482" color="1,0,0"/>
    <vehicle id="NW_174" type="typeWE" route="NtoW" depart="482" color="1,1,0"/>
    <vehicle id="SWt_175" type="typeWE" route="StoW" depart="482" color="0,1,0" />
    <vehicle id="ES_176" type="typeWE" route="EtoS" depart="483" color="1,0,0"/>
    <vehicle id="SN_177" type="typeWE" route="StoN" depart="484" color="0,1,0"/>
    <vehicle id="SN_178" type="typeWE" route="StoN" depart="485" color="0,1,0"/>
    <vehicle id="NS_179" type="typeWE" route="NtoS" depart="489" color="1,1,0"/>
    <vehicle id="ES_180" type="typeWE" route="EtoS" depart="490" color="1,0,0"/>
    <vehicle id="SWt_181" type="typeWE" route="StoW" depart="491" color="0,1,0" />
    <vehicle id="ES_182" type="typeWE" route="EtoS" depart="492" color="1,0,0"/>
    <vehicle id="WS_183" type="typeWE" route="WtoS" depart="493" color="1,0,1"/>
    <vehicle id="EN_184" type="typeWE" route="EtoN" depart="495" color="1,0,0"/>
    <vehicle id="SN_185" type="typeWE" route="StoN" depart="496" color="0,1,0"/>
    <vehicle id="ES_186" type="typeWE" route="EtoS" depart="496" color="1,0,0"/>
    <vehicle id="EW_187" type="typeWE" route="EtoW" depart="499" color="1,0,0" />
    <vehicle id="ES_188" type="typeWE" route="EtoS" depart="500" color="1,0,0"/>
    <vehicle id="NE_189" type="typeWE" route="NtoE" depart="500" color="1,1,0"/>
    <vehicle id="NS_190" type="typeWE" route="NtoS" depart="502" color="1,1,0"/>
    <vehicle id="EN_191" type="typeWE" route="EtoN" depart="503" color="1,0,0"/>
    <vehicle id="WS_192" type="typeWE" route="WtoS" depart="503" color="1,0,1"/>
    <vehicle id="SWt_193" type="typeWE" route="StoW" depart="505" color="0,1,0" />
    <vehicle id="NS_194" type="typeWE" route="NtoS" depart="507" color="1,1,0"/>
    <vehicle id="EW_195" type="typeWE" route="EtoW" depart="508" color="1,0,0" />
    <vehicle id="EW_196" type="typeWE" route="EtoW" depart="510" color="1,0,0" />
    <vehicle id="ES_197" type="typeWE" route="EtoS" depart="513" color="1,0,0"/>
    <vehicle id="EW_198" type="typeWE" route="EtoW" depart="514" color="1,0,0" />
    <vehicle id="SE_199" type="typeWE" route="StoE" depart="517" color="0,1,0" />
    <vehicle id="WS_200" type="typeWE" route="WtoS" depart="518" color="1,0,1"/>
    <vehicle id="EW_201" type="typeWE" route="EtoW" depart="519" color="1,0,0" />
    <vehicle id="NE_202" type="typeWE" route="NtoE" depart="522" color="1,1,0"/>
    <vehicle id="ES_203" type="typeWE" route="EtoS" depart="528" color="1,0,0"/>
    <vehicle id="WS_204" type="typeWE" route="WtoS" depart="528" color="1,0,1"/>
    <vehicle id="WS_205" type="typeWE" route="WtoS" depart="533" color="1,0,1"/>
    <vehicle id="EN_206" type="typeWE" route="EtoN" depart="535" color="1,0,0"/>
    <vehicle id="WE_207" type="typeWE" route="WtoE" depart="541" color="1,0,1"/>
    <vehicle id="EW_208" type="typeWE" route="EtoW" depart="542" color="1,0,0" />
    <vehicle id="SWt_209" type="typeWE" route="StoW" depart="543" color="0,1,0" />
    <vehicle id="EN_210" type="typeWE" route="EtoN" depart="545" color="1,0,0"/>
    <vehicle id="EW_211" type="typeWE" route="EtoW" depart="548" color="1,0,0" />
    <vehicle id="NE_212" type="typeWE" route="NtoE" depart="551" color="1,1,0"/>
    <vehicle id="SE_213" type="typeWE" route="StoE" depart="558" color="0,1,0" />
    <vehicle id="ES_214" type="typeWE" route="EtoS" depart="563" color="1,0,0"/>
    <vehicle id="EN_215" type="typeWE" route="EtoN" depart="566" color="1,0,0"/>
    <vehicle id="EN_216" type="typeWE" route="EtoN" depart="567" color="1,0,0"/>
    <vehicle id="ES_217" type="typeWE" route="EtoS" depart="567" color="1,0,0"/>
    <vehicle id="SE_218" type="typeWE" route="StoE" depart="568" color="0,1,0" />
    <vehicle id="SWt_219" type="typeWE" route="StoW" depart="569" color="0,1,0" />
    <vehicle id="EW_220" type="typeWE" route="EtoW" depart="570" color="1,0,0" />
    <vehicle id="ES_221" type="typeWE" route="EtoS" depart="570" color="1,0,0"/>
    <vehicle id="SWt_222" type="typeWE" route="StoW" depart="570" color="0,1,0" />
    <vehicle id="ES_223" type="typeWE" route="EtoS" depart="573" color="1,0,0"/>
    <vehicle id="SN_224" type="typeWE" route="StoN" depart="576" color="0,1,0"/>
    <vehicle id="NE_225" type="typeWE" route="NtoE" depart="576" color="1,1,0"/>
    <vehicle id="NW_226" type="typeWE" route="NtoW" depart="580" color="1,1,0"/>
    <vehicle id="SN_227" type="typeWE" route="StoN" depart="582" color="0,1,0"/>
    <vehicle id="EN_228" type="typeWE" route="EtoN" depart="582" color="1,0,0"/>
    <vehicle id="SE_229" type="typeWE" route="StoE" depart="582" color="0,1,0" />
    <vehicle id="EN_230" type="typeWE" route="EtoN" depart="584" color="1,0,0"/>
    <vehicle id="ES_231" type="typeWE" route="EtoS" depart="584" color="1,0,0"/>
    <vehicle id="WN_232" type="typeWE" route="WtoN" depart="585" color="1,0,1"/>
    <vehicle id="EW_233" type="typeWE" route="EtoW" depart="586" color="1,0,0" />
    <vehicle id="EN_234" type="typeWE" route="EtoN" depart="586" color="1,0,0"/>
    <vehicle id="NW_235" type="typeWE" route="NtoW" depart="587" color="1,1,0"/>
    <vehicle id="EN_236" type="typeWE" route="EtoN" depart="589" color="1,0,0"/>
    <vehicle id="SN_237" type="typeWE" route="StoN" depart="594" color="0,1,0"/>
    <vehicle id="SWt_238" type="typeWE" route="StoW" depart="595" color="0,1,0" />
    <vehicle id="ES_239" type="typeWE" route="EtoS" depart="599" color="1,0,0"/>
    <vehicle id="WN_240" type="typeWE" route="WtoN" depart="603" color="1,0,1"/>
    <vehicle id="SWt_241" type="typeWE" route="StoW" depart="607" color="0,1,0" />
    <vehicle id="SE_242" type="typeWE" route="StoE" depart="610" color="0,1,0" />
    <vehicle id="ES_243" type="typeWE" route="EtoS" depart="611" color="1,0,0"/>
    <vehicle id="NE_244" type="typeWE" route="NtoE" depart="611" color="1,1,0"/>
    <vehicle id="SWt_245" type="typeWE" route="StoW" depart="611" color="0,1,0" />
    <vehicle id="ES_246" type="typeWE" route="EtoS" depart="614" color="1,0,0"/>
    <vehicle id="EN_247" type="typeWE" route="EtoN" depart="617" color="1,0,0"/>
    <vehicle id="EW_248" type="typeWE" route="EtoW" depart="619" color="1,0,0" />
    <vehicle id="ES_249" type="typeWE" route="EtoS" depart="621" color="1,0,0"/>
    <vehicle id="EN_250" type="typeWE" route="EtoN" depart="622" color="1,0,0"/>
    <vehicle id="NE_251" type="typeWE" route="NtoE" depart="625" color="1,1,0"/>
    <vehicle id="ES_252" type="typeWE" route="EtoS" depart="627" color="1,0,0"/>
    <vehicle id="EW_253" type="typeWE" route="EtoW" depart="636" color="1,0,0" />
    <vehicle id="WN_254" type="typeWE" route="WtoN" depart="636" color="1,0,1"/>
    <vehicle id="NW_255" type="typeWE" route="NtoW" depart="638" color="1,1,0"/>
    <vehicle id="WE_256" type="typeWE" route="WtoE" depart="639" color="1,0,1"/>
    <vehicle id="WN_257" type="typeWE" route="WtoN" depart="641" color="1,0,1"/>
    <vehicle id="ES_258" type="typeWE" route="EtoS" depart="647" color="1,0,0"/>
    <vehicle id="EN_259" type="typeWE" route="EtoN" depart="649" color="1,0,0"/>
    <vehicle id="EN_260" type="typeWE" route="EtoN" depart="650" color="1,0,0"/>
    <vehicle id="WN_261" type="typeWE" route="WtoN" depart="651" color="1,0,1"/>
    <vehicle id="EN_262" type="typeWE" route="EtoN" depart="652" color="1,0,0"/>
    <vehicle id="ES_263" type="typeWE" route="EtoS" depart="653" color="1,0,0"/>
    <vehicle id="SWt_264" type="typeWE" route="StoW" depart="657" color="0,1,0" />
    <vehicle id="EW_265" type="typeWE" route="EtoW" depart="663" color="1,0,0" />
    <vehicle id="EN_266" type="typeWE" route="EtoN" depart="665" color="1,0,0"/>
    <vehicle id="EN_267" type="typeWE" route="EtoN" depart="671" color="1,0,0"/>
    <vehicle id="EN_268" type="typeWE" route="EtoN" depart="672" color="1,0,0"/>
    <vehicle id="WS_269" type="typeWE" route="WtoS" depart="672" color="1,0,1"/>
    <vehicle id="SN_270" type="typeWE" route="StoN" depart="677" color="0,1,0"/>
    <vehicle id="WS_271" type="typeWE" route="WtoS" depart="679" color="1,0,1"/>
    <vehicle id="ES_272" type="typeWE" route="EtoS" depart="680" color="1,0,0"/>
    <vehicle id="ES_273" type="typeWE" route="EtoS" depart="683" color="1,0,0"/>
    <vehicle id="WE_274" type="typeWE" route="WtoE" depart="685" color="1,0,1"/>
    <vehicle id="SE_275" type="typeWE" route="StoE" depart="685" color="0,1,0" />
    <vehicle id="EN_276" type="typeWE" route="EtoN" depart="690" color="1,0,0"/>
    <vehicle id="WE_277" type="typeWE" route="WtoE" depart="692" color="1,0,1"/>
    <vehicle id="EW_278" type="typeWE" route="EtoW" depart="692" color="1,0,0" />
    <vehicle id="ES_279" type="typeWE" route="EtoS" depart="692" color="1,0,0"/>
    <vehicle id="EN_280" type="typeWE" route="EtoN" depart="694" color="1,0,0"/>
    <vehicle id="SE_281" type="typeWE" route="StoE" depart="694" color="0,1,0" />
    <vehicle id="EN_282" type="typeWE" route="EtoN" depart="696" color="1,0,0"/>
    <vehicle id="ES_283" type="typeWE" route="EtoS" depart="697" color="1,0,0"/>
    <vehicle id="WE_284" type="typeWE" route="WtoE" depart="698" color="1,0,1"/>
    <vehicle id="EW_285" type="typeWE" route="EtoW" depart="698" color="1,0,0" />
    <vehicle id="NW_286" type="typeWE" route="NtoW" depart="698" color="1,1,0"/>
    <vehicle id="EN_287" type="typeWE" route="EtoN" depart="699" color="1,0,0"/>
    <vehicle id="EW_288" type="typeWE" route="EtoW" depart="702" color="1,0,0" />
    <vehicle id="NE_289" type="typeWE" route="NtoE" depart="703" color="1,1,0"/>
    <vehicle id="ES_290" type="typeWE" route="EtoS" depart="706" color="1,0,0"/>
    <vehicle id="WN_291" type="typeWE" route="WtoN" depart="707" color="1,0,1"/>
    <vehicle id="WE_292" type="typeWE" route="WtoE" depart="711" color="1,0,1"/>
    <vehicle id="SN_293" type="typeWE" route="StoN" depart="732" color="0,1,0"/>
    <vehicle id="WS_294" type="typeWE" route="WtoS" depart="736" color="1,0,1"/>
    <vehicle id="EW_295" type="typeWE" route="EtoW" depart="738" color="1,0,0" />
    <vehicle id="NW_296" type="typeWE" route="NtoW" depart="741" color="1,1,0"/>
    <vehicle id="EW_297" type="typeWE" route="EtoW" depart="742" color="1,0,0" />
    <vehicle id="SWt_298" type="typeWE" route="StoW" depart="742" color="0,1,0" />
    <vehicle id="WE_299" type="typeWE" route="WtoE" depart="745" color="1,0,1"/>
    <vehicle id="EN_300" type="typeWE" route="EtoN" depart="745" color="1,0,0"/>
    <vehicle id="WN_301" type="typeWE" route="WtoN" depart="747" color="1,0,1"/>
    <vehicle id="SE_302" type="typeWE" route="StoE" depart="751" color="0,1,0" />
    <vehicle id="NE_303" type="typeWE" route="NtoE" depart="753" color="1,1,0"/>
    <vehicle id="EN_304" type="typeWE" route="EtoN" depart="755" color="1,0,0"/>
    <vehicle id="NS_305" type="typeWE" route="NtoS" depart="756" color="1,1,0"/>
    <vehicle id="EW_306" type="typeWE" route="EtoW" depart="758" color="1,0,0" />
    <vehicle id="ES_307" type="typeWE" route="EtoS" depart="760" color="1,0,0"/>
    <vehicle id="NW_308" type="typeWE" route="NtoW" depart="762" color="1,1,0"/>
    <vehicle id="SWt_309" type="typeWE" route="StoW" depart="765" color="0,1,0" />
    <vehicle id="NS_310" type="typeWE" route="NtoS" depart="768" color="1,1,0"/>
    <vehicle id="WN_311" type="typeWE" route="WtoN" depart="770" color="1,0,1"/>
    <vehicle id="EN_312" type="typeWE" route="EtoN" depart="771" color="1,0,0"/>
    <vehicle id="EW_313" type="typeWE" route="EtoW" depart="773" color="1,0,0" />
    <vehicle id="ES_314" type="typeWE" route="EtoS" depart="773" color="1,0,0"/>
    <vehicle id="EW_315" type="typeWE" route="EtoW" depart="777" color="1,0,0" />
    <vehicle id="SE_316" type="typeWE" route="StoE" depart="777" color="0,1,0" />
    <vehicle id="EN_317" type="typeWE" route="EtoN" depart="781" color="1,0,0"/>
    <vehicle id="WS_318" type="typeWE" route="WtoS" depart="783" color="1,0,1"/>
    <vehicle id="EW_319" type="typeWE" route="EtoW" depart="784" color="1,0,0" />
    <vehicle id="SN_320" type="typeWE" route="StoN" depart="784" color="0,1,0"/>
    <vehicle id="SN_321" type="typeWE" route="StoN" depart="785" color="0,1,0"/>
    <vehicle id="SWt_322" type="typeWE" route="StoW" depart="787" color="0,1,0" />
    <vehicle id="NS_323" type="typeWE" route="NtoS" depart="788" color="1,1,0"/>
    <vehicle id="SN_324" type="typeWE" route="StoN" depart="788" color="0,1,0"/>
    <vehicle id="ES_325" type="typeWE" route="EtoS" depart="798" color="1,0,0"/>
    <vehicle id="SE_326" type="typeWE" route="StoE" depart="799" color="0,1,0" />
    <vehicle id="ES_327" type="typeWE" route="EtoS" depart="800" color="1,0,0"/>
    <vehicle id="EW_328" type="typeWE" route="EtoW" depart="801" color="1,0,0" />
    <vehicle id="WE_329" type="typeWE" route="WtoE" depart="802" color="1,0,1"/>
    <vehicle id="ES_330" type="typeWE" route="EtoS" depart="812" color="1,0,0"/>
    <vehicle id="ES_331" type="typeWE" route="EtoS" depart="815" color="1,0,0"/>
    <vehicle id="SWt_332" type="typeWE" route="StoW" depart="816" color="0,1,0" />
    <vehicle id="WE_333" type="typeWE" route="WtoE" depart="818" color="1,0,1"/>
    <vehicle id="SWt_334" type="typeWE" route="StoW" depart="818" color="0,1,0" />
    <vehicle id="EN_335" type="typeWE" route="EtoN" depart="819" color="1,0,0"/>
    <vehicle id="EW_336" type="typeWE" route="EtoW" depart="820" color="1,0,0" />
    <vehicle id="EW_337" type="typeWE" route="EtoW" depart="821" color="1,0,0" />
    <vehicle id="ES_338" type="typeWE" route="EtoS" depart="821" color="1,0,0"/>
    <vehicle id="EW_339" type="typeWE" route="EtoW" depart="825" color="1,0,0" />
    <vehicle id="EN_340" type="typeWE" route="EtoN" depart="826" color="1,0,0"/>
    <vehicle id="NE_341" type="typeWE" route="NtoE" depart="826" color="1,1,0"/>
    <vehicle id="WS_342" type="typeWE" route="WtoS" depart="829" color="1,0,1"/>
    <vehicle id="EN_343" type="typeWE" route="EtoN" depart="831" color="1,0,0"/>
    <vehicle id="WN_344" type="typeWE" route="WtoN" depart="832" color="1,0,1"/>
    <vehicle id="SE_345" type="typeWE" route="StoE" depart="833" color="0,1,0" />
    <vehicle id="WS_346" type="typeWE" route="WtoS" depart="833" color="1,0,1"/>
    <vehicle id="WN_347" type="typeWE" route="WtoN" depart="836" color="1,0,1"/>
    <vehicle id="EW_348" type="typeWE" route="EtoW" depart="843" color="1,0,0" />
    <vehicle id="EN_349" type="typeWE" route="EtoN" depart="844" color="1,0,0"/>
    <vehicle id="SE_350" type="typeWE" route="StoE" depart="844" color="0,1,0" />
    <vehicle id="ES_351" type="typeWE" route="EtoS" depart="846" color="1,0,0"/>
    <vehicle id="EN_352" type="typeWE" route="EtoN" depart="848" color="1,0,0"/>
    <vehicle id="SE_353" type="typeWE" route="StoE" depart="848" color="0,1,0" />
    <vehicle id="WN_354" type="typeWE" route="WtoN" depart="849" color="1,0,1"/>
    <vehicle id="SN_355" type="typeWE" route="StoN" depart="850" color="0,1,0"/>
    <vehicle id="EN_356" type="typeWE" route="EtoN" depart="853" color="1,0,0"/>
    <vehicle id="SN_357" type="typeWE" route="StoN" depart="854" color="0,1,0"/>
    <vehicle id="EW_358" type="typeWE" route="EtoW" depart="858" color="1,0,0" />
    <vehicle id="NW_359" type="typeWE" route="NtoW" depart="865" color="1,1,0"/>
    <vehicle id="NE_360" type="typeWE" route="NtoE" depart="866" color="1,1,0"/>