<routes>
        <vType id="typeWE" accel="2.5" decel="4.5" sigma="0.5" length="5" minGap="2.5" maxSpeed="50" guiShape="passenger"/>
        <vType id="typeNS" accel="0.8" decel="4.5" sigma="0.5" length="7" minGap="3" maxSpeed="25" guiShape="bus"/>

        <route id="EtoW" edges="EW1 EW2" />
        <route id="WtoE" edges="WE1 WE2" />
        <route id="NtoS" edges="NS1 NS2" />
        <route id="StoN" edges="SN1 SN2" />
        <route id="EtoN" edges="EW1 SN2" />
        <route id="EtoS" edges="EW1 NS2" />
        <route id="WtoN" edges="WE1 SN2" />
        <route id="WtoS" edges="WE1 NS2" />
        <route id="NtoE" edges="NS1 WE2" />
        <route id="NtoW" edges="NS1 EW2" />
        <route id="StoE" edges="SN1 WE2" />
        <route id="StoW" edges="SN1 EW2" />
        
    <vehicle id="SN_0" type="typeWE" route="StoN" depart="0" color="0,1,0"/>
    <vehicle id="NS_1" type="typeWE" route="NtoS" depart="2" color="1,1,0"/>
    <vehicle id="ES_2" type="typeWE" route="EtoS" depart="4" color="1,0,0"/>
    <vehicle id="SE_3" type="typeWE" route="StoE" depart="4" color="0,1,0" />
    <vehicle id="WS_4" type="typeWE" route="WtoS" depart="4" color="1,0,1"/>
    <vehicle id="WE_5" type="typeWE" route="WtoE" depart="6" color="1,0,1"/>
    <vehicle id="EN_6" type="typeWE" route="EtoN" depart="8" color="1,0,0"/>
    <vehicle id="NW_7" type="typeWE" route="NtoW" depart="9" color="1,1,0"/>
    <vehicle id="ES_8" type="typeWE" route="EtoS" depart="13" color="1,0,0"/>
    <vehicle id="NE_9" type="typeWE" route="NtoE" depart="14" color="1,1,0"/>
    <vehicle id="ES_10" type="typeWE" route="EtoS" depart="15" color="1,0,0"/>
    <vehicle id="ES_11" type="typeWE" route="EtoS" depart="16" color="1,0,0"/>
    <vehicle id="EN_12" type="typeWE" route="EtoN" depart="21" color="1,0,0"/>
    <vehicle id="WE_13" type="typeWE" route="WtoE" depart="23" color="1,0,1"/>
    <vehicle id="WN_14" type="typeWE" route="WtoN" depart="26" color="1,0,1"/>
    <vehicle id="ES_15" type="typeWE" route="EtoS" depart="28" color="1,0,0"/>
    <vehicle id="ES_16" type="typeWE" route="EtoS" depart="29" color="1,0,0"/>
    <vehicle id="EW_17" type="typeWE" route="EtoW" depart="30" color="1,0,0" />
    <vehicle id="SE_18" type="typeWE" route="StoE" depart="30" color="0,1,0" />
    <vehicle id="EW_19" type="typeWE" route="EtoW" depart="31" color="1,0,0" />
    <vehicle id="ES_20" type="typeWE" route="EtoS" depart="31" color="1,0,0"/>
    <vehicle id="EW_21" type="typeWE" route="EtoW" depart="33" color="1,0,0" />
    <vehicle id="EN_22" type="typeWE" route="EtoN" depart="33" color="1,0,0"/>
    <vehicle id="EN_23" type="typeWE" route="EtoN" depart="38" color="1,0,0"/>
    <vehicle id="EW_24" type="typeWE" route="EtoW" depart="40" color="1,0,0" />
    <vehicle id="EW_25" type="typeWE" route="EtoW" depart="42" color="1,0,0" />
    <vehicle id="ES_26" type="typeWE" route="EtoS" depart="43" color="1,0,0"/>
    <vehicle id="ES_27" type="typeWE" route="EtoS" depart="44" color="1,0,0"/>
    <vehicle id="EW_28" type="typeWE" route="EtoW" depart="45" color="1,0,0" />
    <vehicle id="ES_29" type="typeWE" route="EtoS" depart="49" color="1,0,0"/>
    <vehicle id="SWt_30" type="typeWE" route="StoW" depart="49" color="0,1,0" />
    <vehicle id="WE_31" type="typeWE" route="WtoE" depart="50" color="1,0,1"/>
    <vehicle id="WE_32" type="typeWE" route="WtoE" depart="51" color="1,0,1"/>
    <vehicle id="EN_33" type="typeWE" route="EtoN" depart="51" color="1,0,0"/>
    <vehicle id="EN_34" type="typeWE" route="EtoN" depart="53" color="1,0,0"/>
    <vehicle id="EW_35" type="typeWE" route="EtoW" depart="54" color="1,0,0" />
    <vehicle id="EW_36" type="typeWE" route="EtoW" depart="55" color="1,0,0" />
    <vehicle id="EW_37" type="typeWE" route="EtoW" depart="57" color="1,0,0" />
    <vehicle id="ES_38" type="typeWE" route="EtoS" depart="57" color="1,0,0"/>
    <vehicle id="NS_39" type="typeWE" route="NtoS" depart="58" color="1,1,0"/>
    <vehicle id="ES_40" type="typeWE" route="EtoS" depart="59" color="1,0,0"/>
    <vehicle id="SE_41" type="typeWE" route="StoE" depart="59" color="0,1,0" />
    <vehicle id="SN_42" type="typeWE" route="StoN" depart="60" color="0,1,0"/>
    <vehicle id="ES_43" type="typeWE" route="EtoS" depart="60" color="1,0,0"/>
    <vehicle id="EW_44" type="typeWE" route="EtoW" depart="62" color="1,0,0" />
    <vehicle id="ES_45" type="typeWE" route="EtoS" depart="63" color="1,0,0"/>
    <vehicle id="SWt_46" type="typeWE" route="StoW" depart="63" color="0,1,0" />
    <vehicle id="EW_47" type="typeWE" route="EtoW" depart="66" color="1,0,0" />
    <vehicle id="ES_48" type="typeWE" route="EtoS" depart="67" color="1,0,0"/>
    <vehicle id="ES_49" type="typeWE" route="EtoS" depart="69" color="1,0,0"/>
    <vehicle id="EN_50" type="typeWE" route="EtoN" depart="70" color="1,0,0"/>
    <vehicle id="SE_51" type="typeWE" route="StoE" depart="71" color="0,1,0" />
    <vehicle id="EW_52" type="typeWE" route="EtoW" depart="72" color="1,0,0" />
    <vehicle id="WE_53" type="typeWE" route="WtoE" depart="75" color="1,0,1"/>
    <vehicle id="EW_54" type="typeWE" route="EtoW" depart="77" color="1,0,0" />
    <vehicle id="EN_55" type="typeWE" route="EtoN" depart="79" color="1,0,0"/>
    <vehicle id="WN_56" type="typeWE" route="WtoN" depart="80" color="1,0,1"/>
    <vehicle id="ES_57" type="typeWE" route="EtoS" depart="83" color="1,0,0"/>
    <vehicle id="SWt_58" type="typeWE" route="StoW" depart="83" color="0,1,0" />
    <vehicle id="EW_59" type="typeWE" route="EtoW" depart="84" color="1,0,0" />
    <vehicle id="ES_60" type="typeWE" route="EtoS" depart="84" color="1,0,0"/>
    <vehicle id="EW_61" type="typeWE" route="EtoW" depart="85" color="1,0,0" />
    <vehicle id="EN_62" type="typeWE" route="EtoN" depart="85" color="1,0,0"/>
    <vehicle id="EW_63" type="typeWE" route="EtoW" depart="86" color="1,0,0" />
    <vehicle id="SN_64" type="typeWE" route="StoN" depart="86" color="0,1,0"/>
    <vehicle id="ES_65" type="typeWE" route="EtoS" depart="86" color="1,0,0"/>
    <vehicle id="NS_66" type="typeWE" route="NtoS" depart="87" color="1,1,0"/>
    <vehicle id="EN_67" type="typeWE" route="EtoN" depart="88" color="1,0,0"/>
    <vehicle id="ES_68" type="typeWE" route="EtoS" depart="88" color="1,0,0"/>
    <vehicle id="NS_69" type="typeWE" route="NtoS" depart="89" color="1,1,0"/>
    <vehicle id="WN_70" type="typeWE" route="WtoN" depart="91" color="1,0,1"/>
    <vehicle id="NE_71" type="typeWE" route="NtoE" depart="92" color="1,1,0"/>
    <vehicle id="EN_72" type="typeWE" route="EtoN" depart="93" color="1,0,0"/>
    <vehicle id="NW_73" type="typeWE" route="NtoW" depart="93" color="1,1,0"/>
    <vehicle id="WN_74" type="typeWE" route="WtoN" depart="93" color="1,0,1"/>
    <vehicle id="ES_75" type="typeWE" route="EtoS" depart="94" color="1,0,0"/>
    <vehicle id="EW_76" type="typeWE" route="EtoW" depart="96" color="1,0,0" />
    <vehicle id="EN_77" type="typeWE" route="EtoN" depart="96" color="1,0,0"/>
    <vehicle id="ES_78" type="typeWE" route="EtoS" depart="96" color="1,0,0"/>
    <vehicle id="NS_79" type="typeWE" route="NtoS" depart="98" color="1,1,0"/>
    <vehicle id="EW_80" type="typeWE" route="EtoW" depart="99" color="1,0,0" />
    <vehicle id="EN_81" type="typeWE" route="EtoN" depart="99" color="1,0,0"/>
    <vehicle id="ES_82" type="typeWE" route="EtoS" depart="100" color="1,0,0"/>
    <vehicle id="NW_83" type="typeWE" route="NtoW" depart="103" color="1,1,0"/>
    <vehicle id="ES_84" type="typeWE" route="EtoS" depart="104" color="1,0,0"/>
    <vehicle id="SE_85" type="typeWE" route="StoE" depart="104" color="0,1,0" />
    <vehicle id="EN_86" type="typeWE" route="EtoN" depart="105" color="1,0,0"/>
    <vehicle id="EN_87" type="typeWE" route="EtoN" depart="106" color="1,0,0"/>
    <vehicle id="WN_88" type="typeWE" route="WtoN" depart="107" color="1,0,1"/>
    <vehicle id="ES_89" type="typeWE" route="EtoS" depart="111" color="1,0,0"/>
    <vehicle id="EN_90" type="typeWE" route="EtoN" depart="113" color="1,0,0"/>
    <vehicle id="NE_91" type="typeWE" route="NtoE" depart="115" color="1,1,0"/>
    <vehicle id="NE_92" type="typeWE" route="NtoE" depart="116" color="1,1,0"/>
    <vehicle id="EW_93" type="typeWE" route="EtoW" depart="117" color="1,0,0" />
    <vehicle id="EW_94" type="typeWE" route="EtoW" depart="118" color="1,0,0" />
    <vehicle id="ES_95" type="typeWE" route="EtoS" depart="118" color="1,0,0"/>
    <vehicle id="NE_96" type="typeWE" route="NtoE" depart="118" color="1,1,0"/>
    <vehicle id="SWt_97" type="typeWE" route="StoW" depart="118" color="0,1,0" />
    <vehicle id="EW_98" type="typeWE" route="EtoW" depart="119" color="1,0,0" />
    <vehicle id="ES_99" type="typeWE" route="EtoS" depart="119" color="1,0,0"/>
    <vehicle id="ES_100" type="typeWE" route="EtoS" depart="120" color="1,0,0"/>
    <vehicle id="EN_101" type="typeWE" route="EtoN" depart="121" color="1,0,0"/>
    <vehicle id="WN_102" type="typeWE" route="WtoN" depart="121" color="1,0,1"/>
    <vehicle id="EW_103" type="typeWE" route="EtoW" depart="122" color="1,0,0" />
    <vehicle id="EW_104" type="typeWE" route="EtoW" depart="125" color="1,0,0" />
    <vehicle id="EN_105" type="typeWE" route="EtoN" depart="125" color="1,0,0"/>
    <vehicle id="ES_106" type="typeWE" route="EtoS" depart="125" color="1,0,0"/>
    <vehicle id="EN_107" type="typeWE" route="EtoN" depart="126" color="1,0,0"/>
    <vehicle id="ES_108" type="typeWE" route="EtoS" depart="126" color="1,0,0"/>
    <vehicle id="EW_109" type="typeWE" route="EtoW" depart="128" color="1,0,0" />
    <vehicle id="WE_110" type="typeWE" route="WtoE" depart="132" color="1,0,1"/>
    <vehicle id="EN_111" type="typeWE" route="EtoN" depart="132" color="1,0,0"/>
    <vehicle id="EW_112" type="typeWE" route="EtoW" depart="133" color="1,0,0" />
    <vehicle id="EW_113" type="typeWE" route="EtoW" depart="134" color="1,0,0" />
    <vehicle id="EN_114" type="typeWE" route="EtoN" depart="138" color="1,0,0"/>
    <vehicle id="EN_115" type="typeWE" route="EtoN" depart="139" color="1,0,0"/>
    <vehicle id="ES_116" type="typeWE" route="EtoS" depart="139" color="1,0,0"/>
    <vehicle id="SWt_117" type="typeWE" route="StoW" depart="140" color="0,1,0" />
    <vehicle id="EN_118" type="typeWE" route="EtoN" depart="142" color="1,0,0"/>
    <vehicle id="ES_119" type="typeWE" route="EtoS" depart="142" color="1,0,0"/>
    <vehicle id="EW_120" type="typeWE" route="EtoW" depart="145" color="1,0,0" />
    <vehicle id="SN_121" type="typeWE" route="StoN" depart="146" color="0,1,0"/>
    <vehicle id="WN_122" type="typeWE" route="WtoN" depart="146" color="1,0,1"/>
    <vehicle id="EW_123" type="typeWE" route="EtoW" depart="148" color="1,0,0" />
    <vehicle id="ES_124" type="typeWE" route="EtoS" depart="151" color="1,0,0"/>
    <vehicle id="EW_125" type="typeWE" route="EtoW" depart="152" color="1,0,0" />
    <vehicle id="EN_126" type="typeWE" route="EtoN" depart="154" color="1,0,0"/>
    <vehicle id="ES_127" type="typeWE" route="EtoS" depart="155" color="1,0,0"/>
    <vehicle id="EN_128" type="typeWE" route="EtoN" depart="157" color="1,0,0"/>
    <vehicle id="ES_129" type="typeWE" route="EtoS" depart="157" color="1,0,0"/>
    <vehicle id="EN_130" type="typeWE" route="EtoN" depart="158" color="1,0,0"/>
    <vehicle id="EW_131" type="typeWE" route="EtoW" depart="159" color="1,0,0" />
    <vehicle id="EW_132" type="typeWE" route="EtoW" depart="160" color="1,0,0" />
    <vehicle id="EN_133" type="typeWE" route="EtoN" depart="161" color="1,0,0"/>
    <vehicle id="SWt_134" type="typeWE" route="StoW" depart="163" color="0,1,0" />
    <vehicle id="EW_135" type="typeWE" route="EtoW" depart="168" color="1,0,0" />
    <vehicle id="EN_136" type="typeWE" route="EtoN" depart="169" color="1,0,0"/>
    <vehicle id="EW_137" type="typeWE" route="EtoW" depart="171" color="1,0,0" />
    <vehicle id="EW_138" type="typeWE" route="EtoW" depart="172" color="1,0,0" />
    <vehicle id="EW_139" type="typeWE" route="EtoW" depart="173" color="1,0,0" />
    <vehicle id="EW_140" type="typeWE" route="EtoW" depart="174" color="1,0,0" />
    <vehicle id="EN_141" type="typeWE" route="EtoN" depart="174" color="1,0,0"/>
    <vehicle id="EW_142" type="typeWE" route="EtoW" depart="177" color="1,0,0" />
    <vehicle id="ES_143" type="typeWE" route="EtoS" depart="178" color="1,0,0"/>
    <vehicle id="WE_144" type="typeWE" route="WtoE" depart="181" color="1,0,1"/>
    <vehicle id="NE_145" type="typeWE" route="NtoE" depart="181" color="1,1,0"/>
    <vehicle id="SWt_146" type="typeWE" route="StoW" depart="181" color="0,1,0" />
    <vehicle id="EN_147" type="typeWE" route="EtoN" depart="183" color="1,0,0"/>
    <vehicle id="EN_148" type="typeWE" route="EtoN" depart="186" color="1,0,0"/>
    <vehicle id="ES_149" type="typeWE" route="EtoS" depart="187" color="1,0,0"/>
    <vehicle id="WE_150" type="typeWE" route="WtoE" depart="188" color="1,0,1"/>
    <vehicle id="ES_151" type="typeWE" route="EtoS" depart="188" color="1,0,0"/>
    <vehicle id="EW_152" type="typeWE" route="EtoW" depart="190" color="1,0,0" />
    <vehicle id="WE_153" type="typeWE" route="WtoE" depart="191" color="1,0,1"/>
    <vehicle id="NW_154" type="typeWE" route="NtoW" depart="192" color="1,1,0"/>
    <vehicle id="NS_155" type="typeWE" route="NtoS" depart="195" color="1,1,0"/>
    <vehicle id="SN_156" type="typeWE" route="StoN" depart="195" color="0,1,0"/>
    <vehicle id="ES_157" type="typeWE" route="EtoS" depart="197" color="1,0,0"/>
    <vehicle id="SE_158" type="typeWE" route="StoE" depart="199" color="0,1,0" />
    <vehicle id="EW_159" type="typeWE" route="EtoW" depart="200" color="1,0,0" />
    <vehicle id="ES_160" type="typeWE" route="EtoS" depart="203" color="1,0,0"/>
    <vehicle id="ES_161" type="typeWE" route="EtoS" depart="204" color="1,0,0"/>
    <vehicle id="EW_162" type="typeWE" route="EtoW" depart="205" color="1,0,0" />
    <vehicle id="NE_163" type="typeWE" route="NtoE" depart="207" color="1,1,0"/>
    <vehicle id="SN_164" type="typeWE" route="StoN" depart="208" color="0,1,0"/>
    <vehicle id="WN_165" type="typeWE" route="WtoN" depart="208" color="1,0,1"/>
    <vehicle id="EW_166" type="typeWE" route="EtoW" depart="209" color="1,0,0" />
    <vehicle id="ES_167" type="typeWE" route="EtoS" depart="209" color="1,0,0"/>
    <vehicle id="EW_168" type="typeWE" route="EtoW" depart="211" color="1,0,0" />
    <vehicle id="ES_169" type="typeWE" route="EtoS" depart="213" color="1,0,0"/>
    <vehicle id="EW_170" type="typeWE" route="EtoW" depart="215" color="1,0,0" />
    <vehicle id="EN_171" type="typeWE" route="EtoN" depart="215" color="1,0,0"/>
    <vehicle id="NW_172" type="typeWE" route="NtoW" depart="216" color="1,1,0"/>
    <vehicle id="EW_173" type="typeWE" route="EtoW" depart="217" color="1,0,0" />
    <vehicle id="ES_174" type="typeWE" route="EtoS" depart="218" color="1,0,0"/>
    <vehicle id="SWt_175" type="typeWE" route="StoW" depart="218" color="0,1,0" />
    <vehicle id="WS_176" type="typeWE" route="WtoS" depart="218" color="1,0,1"/>
    <vehicle id="ES_177" type="typeWE" route="EtoS" depart="219" color="1,0,0"/>
    <vehicle id="EW_178" type="typeWE" route="EtoW" depart="221" color="1,0,0" />
    <vehicle id="EW_179" type="typeWE" route="EtoW" depart="222" color="1,0,0" />
    <vehicle id="EN_180" type="typeWE" route="EtoN" depart="222" color="1,0,0"/>
    <vehicle id="ES_181" type="typeWE" route="EtoS" depart="222" color="1,0,0"/>
    <vehicle id="EW_182" type="typeWE" route="EtoW" depart="225" color="1,0,0" />
    <vehicle id="EW_183" type="typeWE" route="EtoW" depart="226" color="1,0,0" />
    <vehicle id="NS_184" type="typeWE" route="NtoS" depart="229" color="1,1,0"/>
    <vehicle id="WE_185" type="typeWE" route="WtoE" depart="231" color="1,0,1"/>
    <vehicle id="NE_186" type="typeWE" route="NtoE" depart="232" color="1,1,0"/>
    <vehicle id="ES_187" type="typeWE" route="EtoS" depart="233" color="1,0,0"/>
    <vehicle id="EN_188" type="typeWE" route="EtoN" depart="234" color="1,0,0"/>
    <vehicle id="NE_189" type="typeWE" route="NtoE" depart="234" color="1,1,0"/>
    <vehicle id="NS_190" type="typeWE" route="NtoS" depart="235" color="1,1,0"/>
    <vehicle id="ES_191" type="typeWE" route="EtoS" depart="235" color="1,0,0"/>
    <vehicle id="EW_192" type="typeWE" route="EtoW" depart="236" color="1,0,0" />
    <vehicle id="EW_193" type="typeWE" route="EtoW" depart="239" color="1,0,0" />
    <vehicle id="ES_194" type="typeWE" route="EtoS" depart="240" color="1,0,0"/>
    <vehicle id="EW_195" type="typeWE" route="EtoW" depart="242" color="1,0,0" />
    <vehicle id="WS_196" type="typeWE" route="WtoS" depart="243" color="1,0,1"/>
    <vehicle id="EW_197" type="typeWE" route="EtoW" depart="244" color="1,0,0" />
    <vehicle id="EN_198" type="typeWE" route="EtoN" depart="244" color="1,0,0"/>
    <vehicle id="EN_199" type="typeWE" route="EtoN" depart="246" color="1,0,0"/>
    <vehicle id="SE_200" type="typeWE" route="StoE" depart="247" color="0,1,0" />
    <vehicle id="EN_201" type="typeWE" route="EtoN" depart="248" color="1,0,0"/>
    <vehicle id="NS_202" type="typeWE" route="NtoS" depart="249" color="1,1,0"/>
    <vehicle id="EN_203" type="typeWE" route="EtoN" depart="252" color="1,0,0"/>
    <vehicle id="ES_204" type="typeWE" route="EtoS" depart="253" color="1,0,0"/>
    <vehicle id="SE_205" type="typeWE" route="StoE" depart="253" color="0,1,0" />
    <vehicle id="ES_206" type="typeWE" route="EtoS" depart="255" color="1,0,0"/>
    <vehicle id="SN_207" type="typeWE" route="StoN" depart="257" color="0,1,0"/>
    <vehicle id="ES_208" type="typeWE" route="EtoS" depart="257" color="1,0,0"/>
    <vehicle id="EW_209" type="typeWE" route="EtoW" depart="258" color="1,0,0" />
    <vehicle id="EW_210" type="typeWE" route="EtoW" depart="259" color="1,0,0" />
    <vehicle id="EN_211" type="typeWE" route="EtoN" depart="259" color="1,0,0"/>
    <vehicle id="SN_212" type="typeWE" route="StoN" depart="261" color="0,1,0"/>
    <vehicle id="EN_213" type="typeWE" route="EtoN" depart="261" color="1,0,0"/>
    <vehicle id="WS_214" type="typeWE" route="WtoS" depart="261" color="1,0,1"/>
    <vehicle id="SWt_215" type="typeWE" route="StoW" depart="264" color="0,1,0" />
    <vehicle id="EN_216" type="typeWE" route="EtoN" depart="265" color="1,0,0"/>
    <vehicle id="EN_217" type="typeWE" route="EtoN" depart="266" color="1,0,0"/>
    <vehicle id="WN_218" type="typeWE" route="WtoN" depart="266" color="1,0,1"/>
    <vehicle id="WS_219" type="typeWE" route="WtoS" depart="267" color="1,0,1"/>
    <vehicle id="EN_220" type="typeWE" route="EtoN" depart="270" color="1,0,0"/>
    <vehicle id="NE_221" type="typeWE" route="NtoE" depart="271" color="1,1,0"/>
    <vehicle id="SWt_222" type="typeWE" route="StoW" depart="271" color="0,1,0" />
    <vehicle id="WE_223" type="typeWE" route="WtoE" depart="272" color="1,0,1"/>
    <vehicle id="EW_224" type="typeWE" route="EtoW" depart="272" color="1,0,0" />
    <vehicle id="EW_225" type="typeWE" route="EtoW" depart="273" color="1,0,0" />
    <vehicle id="EN_226" type="typeWE" route="EtoN" depart="274" color="1,0,0"/>
    <vehicle id="EW_227" type="typeWE" route="EtoW" depart="276" color="1,0,0" />
    <vehicle id="NS_228" type="typeWE" route="NtoS" depart="276" color="1,1,0"/>
    <vehicle id="SN_229" type="typeWE" route="StoN" depart="276" color="0,1,0"/>
    <vehicle id="ES_230" type="typeWE" route="EtoS" depart="276" color="1,0,0"/>
    <vehicle id="ES_231" type="typeWE" route="EtoS" depart="277" color="1,0,0"/>
    <vehicle id="EW_232" type="typeWE" route="EtoW" depart="280" color="1,0,0" />
    <vehicle id="SWt_233" type="typeWE" route="StoW" depart="281" color="0,1,0" />
    <vehicle id="EW_234" type="typeWE" route="EtoW" depart="283" color="1,0,0" />
    <vehicle id="ES_235" type="typeWE" route="EtoS" depart="284" color="1,0,0"/>
    <vehicle id="EN_236" type="typeWE" route="EtoN" depart="287" color="1,0,0"/>
    <vehicle id="WE_237" type="typeWE" route="WtoE" depart="294" color="1,0,1"/>
    <vehicle id="ES_238" type="typeWE" route="EtoS" depart="294" color="1,0,0"/>
    <vehicle id="EW_239" type="typeWE" route="EtoW" depart="296" color="1,0,0" />
    <vehicle id="EW_240" type="typeWE" route="EtoW" depart="297" color="1,0,0" />
    <vehicle id="ES_241" type="typeWE" route="EtoS" depart="298" color="1,0,0"/>
    <vehicle id="ES_242" type="typeWE" route="EtoS" depart="300" color="1,0,0"/>
    <vehicle id="EW_243" type="typeWE" route="EtoW" depart="301" color="1,0,0" />
    <vehicle id="EN_244" type="typeWE" route="EtoN" depart="301" color="1,0,0"/>
    <vehicle id="EN_245" type="typeWE" route="EtoN" depart="302" color="1,0,0"/>
    <vehicle id="EW_246" type="typeWE" route="EtoW" depart="304" color="1,0,0" />
    <vehicle id="ES_247" type="typeWE" route="EtoS" depart="305" color="1,0,0"/>
    <vehicle id="EW_248" type="typeWE" route="EtoW" depart="309" color="1,0,0" />
    <vehicle id="ES_249" type="typeWE" route="EtoS" depart="311" color="1,0,0"/>
    <vehicle id="EW_250" type="typeWE" route="EtoW" depart="312" color="1,0,0" />
    <vehicle id="EN_251" type="typeWE" route="EtoN" depart="313" color="1,0,0"/>
    <vehicle id="EN_252" type="typeWE" route="EtoN" depart="314" color="1,0,0"/>
    <vehicle id="EW_253" type="typeWE" route="EtoW" depart="315" color="1,0,0" />
    <vehicle id="EW_254" type="typeWE" route="EtoW" depart="316" color="1,0,0" />
    <vehicle id="EN_255" type="typeWE" route="EtoN" depart="316" color="1,0,0"/>
    <vehicle id="EN_256" type="typeWE" route="EtoN" depart="317" color="1,0,0"/>
    <vehicle id="WN_257" type="typeWE" route="WtoN" depart="317" color="1,0,1"/>
    <vehicle id="WE_258" type="typeWE" route="WtoE" depart="318" color="1,0,1"/>
    <vehicle id="ES_259" type="typeWE" route="EtoS" depart="318" color="1,0,0"/>
    <vehicle id="SE_260" type="typeWE" route="StoE" depart="319" color="0,1,0" />
    <vehicle id="EW_261" type="typeWE" route="EtoW" depart="322" color="1,0,0" />
    <vehicle id="ES_262" type="typeWE" route="EtoS" depart="322" color="1,0,0"/>
    <vehicle id="SWt_263" type="typeWE" route="StoW" depart="322" color="0,1,0" />
    <vehicle id="EW_264" type="typeWE" route="EtoW" depart="325" color="1,0,0" />
    <vehicle id="ES_265" type="typeWE" route="EtoS" depart="327" color="1,0,0"/>
    <vehicle id="EN_266" type="typeWE" route="EtoN" depart="328" color="1,0,0"/>
    <vehicle id="ES_267" type="typeWE" route="EtoS" depart="328" color="1,0,0"/>
    <vehicle id="EW_268" type="typeWE" route="EtoW" depart="333" color="1,0,0" />
    <vehicle id="EN_269" type="typeWE" route="EtoN" depart="333" color="1,0,0"/>
    <vehicle id="EW_270" type="typeWE" route="EtoW" depart="334" color="1,0,0" />
    <vehicle id="EW_271" type="typeWE" route="EtoW" depart="337" color="1,0,0" />
    <vehicle id="EN_272" type="typeWE" route="EtoN" depart="338" color="1,0,0"/>
    <vehicle id="EW_273" type="typeWE" route="EtoW" depart="339" color="1,0,0" />
    <vehicle id="ES_274" type="typeWE" route="EtoS" depart="339" color="1,0,0"/>
    <vehicle id="NW_275" type="typeWE" route="NtoW" depart="341" color="1,1,0"/>
    <vehicle id="ES_276" type="typeWE" route="EtoS" depart="342" color="1,0,0"/>
    <vehicle id="EW_277" type="typeWE" route="EtoW" depart="343" color="1,0,0" />
    <vehicle id="EN_278" type="typeWE" route="EtoN" depart="343" color="1,0,0"/>
    <vehicle id="EW_279" type="typeWE" route="EtoW" depart="345" color="1,0,0" />
    <vehicle id="EN_280" type="typeWE" route="EtoN" depart="347" color="1,0,0"/>
    <vehicle id="ES_281" type="typeWE" route="EtoS" depart="347" color="1,0,0"/>
    <vehicle id="ES_282" type="typeWE" route="EtoS" depart="352" color="1,0,0"/>
    <vehicle id="EW_283" type="typeWE" route="EtoW" depart="354" color="1,0,0" />
    <vehicle id="SN_284" type="typeWE" route="StoN" depart="354" color="0,1,0"/>
    <vehicle id="EN_285" type="typeWE" route="EtoN" depart="354" color="1,0,0"/>
    <vehicle id="ES_286" type="typeWE" route="EtoS" depart="355" color="1,0,0"/>
    <vehicle id="EW_287" type="typeWE" route="EtoW" depart="356" color="1,0,0" />
    <vehicle id="EW_288" type="typeWE" route="EtoW" depart="358" color="1,0,0" />
    <vehicle id="ES_289" type="typeWE" route="EtoS" depart="358" color="1,0,0"/>
    <vehicle id="ES_290" type="typeWE" route="EtoS" depart="359" color="1,0,0"/>
    <vehicle id="ES_291" type="typeWE" route="EtoS" depart="362" color="1,0,0"/>
    <vehicle id="EW_292" type="typeWE" route="EtoW" depart="363" color="1,0,0" />
    <vehicle id="EW_293" type="typeWE" route="EtoW" depart="364" color="1,0,0" />
    <vehicle id="ES_294" type="typeWE" route="EtoS" depart="367" color="1,0,0"/>
    <vehicle id="ES_295" type="typeWE" route="EtoS" depart="369" color="1,0,0"/>
    <vehicle id="NE_296" type="typeWE" route="NtoE" depart="369" color="1,1,0"/>
    <vehicle id="NW_297" type="typeWE" route="NtoW" depart="369" color="1,1,0"/>
    <vehicle id="EW_298" type="typeWE" route="EtoW" depart="371" color="1,0,0" />
    <vehicle id="EN_299" type="typeWE" route="EtoN" depart="371" color="1,0,0"/>
    <vehicle id="EN_300" type="typeWE" route="EtoN" depart="375" color="1,0,0"/>
    <vehicle id="EN_301" type="typeWE" route="EtoN" depart="377" color="1,0,0"/>
    <vehicle id="ES_302" type="typeWE" route="EtoS" depart="379" color="1,0,0"/>
    <vehicle id="NE_303" type="typeWE" route="NtoE" depart="382" color="1,1,0"/>
    <vehicle id="SWt_304" type="typeWE" route="StoW" depart="382" color="0,1,0" />
    <vehicle id="EW_305" type="typeWE" route="EtoW" depart="383" color="1,0,0" />
    <vehicle id="SWt_306" type="typeWE" route="StoW" depart="384" color="0,1,0" />
    <vehicle id="EW_307" type="typeWE" route="EtoW" depart="385" color="1,0,0" />
    <vehicle id="ES_308" type="typeWE" route="EtoS" depart="385" color="1,0,0"/>
    <vehicle id="EW_309" type="typeWE" route="EtoW" depart="386" color="1,0,0" />
    <vehicle id="ES_310" type="typeWE" route="EtoS" depart="386" color="1,0,0"/>
    <vehicle id="NW_311" type="typeWE" route="NtoW" depart="386" color="1,1,0"/>
    <vehicle id="EN_312" type="typeWE" route="EtoN" depart="389" color="1,0,0"/>
    <vehicle id="ES_313" type="typeWE" route="EtoS" depart="391" color="1,0,0"/>
    <vehicle id="EN_314" type="typeWE" route="EtoN" depart="392" color="1,0,0"/>
    <vehicle id="EN_315" type="typeWE" route="EtoN" depart="393" color="1,0,0"/>
    <vehicle id="ES_316" type="typeWE" route="EtoS" depart="393" color="1,0,0"/>
    <vehicle id="NW_317" type="typeWE" route="NtoW" depart="395" color="1,1,0"/>
    <vehicle id="EW_318" type="typeWE" route="EtoW" depart="398" color="1,0,0" />
    <vehicle id="EN_319" type="typeWE" route="EtoN" depart="400" color="1,0,0"/>
    <vehicle id="EW_320" type="typeWE" route="EtoW" depart="401" color="1,0,0" />
    <vehicle id="NE_321" type="typeWE" route="NtoE" depart="403" color="1,1,0"/>
    <vehicle id="NW_322" type="typeWE" route="NtoW" depart="403" color="1,1,0"/>
    <vehicle id="ES_323" type="typeWE" route="EtoS" depart="408" color="1,0,0"/>
    <vehicle id="WS_324" type="typeWE" route="WtoS" depart="408" color="1,0,1"/>
    <vehicle id="ES_325" type="typeWE" route="EtoS" depart="413" color="1,0,0"/>
    <vehicle id="NE_326" type="typeWE" route="NtoE" depart="414" color="1,1,0"/>
    <vehicle id="ES_327" type="typeWE" route="EtoS" depart="416" color="1,0,0"/>
    <vehicle id="SWt_328" type="typeWE" route="StoW" depart="416" color="0,1,0" />
    <vehicle id="EN_329" type="typeWE" route="EtoN" depart="418" color="1,0,0"/>
    <vehicle id="NW_330" type="typeWE" route="NtoW" depart="423" color="1,1,0"/>
    <vehicle id="SN_331" type="typeWE" route="StoN" depart="424" color="0,1,0"/>
    <vehicle id="EN_332" type="typeWE" route="EtoN" depart="425" color="1,0,0"/>
    <vehicle id="SN_333" type="typeWE" route="StoN" depart="427" color="0,1,0"/>
    <vehicle id="WN_334" type="typeWE" route="WtoN" depart="428" color="1,0,1"/>
    <vehicle id="ES_335" type="typeWE" route="EtoS" depart="429" color="1,0,0"/>
    <vehicle id="WE_336" type="typeWE" route="WtoE" depart="430" color="1,0,1"/>
    <vehicle id="EN_337" type="typeWE" route="EtoN" depart="432" color="1,0,0"/>
    <vehicle id="EN_338" type="typeWE" route="EtoN" depart="437" color="1,0,0"/>
    <vehicle id="WE_339" type="typeWE" route="WtoE" depart="438" color="1,0,1"/>
    <vehicle id="EW_340" type="typeWE" route="EtoW" depart="438" color="1,0,0" />
    <vehicle id="NW_341" type="typeWE" route="NtoW" depart="438" color="1,1,0"/>
    <vehicle id="SN_342" type="typeWE" route="StoN" depart="441" color="0,1,0"/>
    <vehicle id="ES_343" type="typeWE" route="EtoS" depart="441" color="1,0,0"/>
    <vehicle id="EN_344" type="typeWE" route="EtoN" depart="442" color="1,0,0"/>
    <vehicle id="EN_345" type="typeWE" route="EtoN" depart="445" color="1,0,0"/>
    <vehicle id="EN_346" type="typeWE" route="EtoN" depart="448" color="1,0,0"/>
    <vehicle id="ES_347" type="typeWE" route="EtoS" depart="448" color="1,0,0"/>
    <vehicle id="EN_348" type="typeWE" route="EtoN" depart="449" color="1,0,0"/>
    <vehicle id="ES_349" type="typeWE" route="EtoS" depart="449" color="1,0,0"/>
    <vehicle id="ES_350" type="typeWE" route="EtoS" depart="452" color="1,0,0"/>
    <vehicle id="ES_351" type="typeWE" route="EtoS" depart="455" color="1,0,0"/>
    <vehicle id="SE_352" type="typeWE" route="StoE" depart="455" color="0,1,0" />
    <vehicle id="ES_353" type="typeWE" route="EtoS" depart="456" color="1,0,0"/>
    <vehicle id="ES_354" type="typeWE" route="EtoS" depart="459" color="1,0,0"/>
    <vehicle id="EN_355" type="typeWE" route="EtoN" depart="460" color="1,0,0"/>
    <vehicle id="SWt_356" type="typeWE" route="StoW" depart="461" color="0,1,0" />
    <vehicle id="EN_357" type="typeWE" route="EtoN" depart="462" color="1,0,0"/>
    <vehicle id="EN_358" type="typeWE" route="EtoN" depart="463" color="1,0,0"/>
    <vehicle id="ES_359" type="typeWE" route="EtoS" depart="463" color="1,0,0"/>
    <vehicle id="EW_360" type="typeWE" route="EtoW" depart="464" color="1,0,0" />