<routes>
        <vType id="typeWE" accel="2.5" decel="4.5" sigma="0.5" length="5" minGap="2.5" maxSpeed="50" guiShape="passenger"/>
        <vType id="typeNS" accel="0.8" decel="4.5" sigma="0.5" length="7" minGap="3" maxSpeed="25" guiShape="bus"/>

        <route id="EtoW" edges="EW1 EW2" />
        <route id="WtoE" edges="WE1 WE2" />
        <route id="NtoS" edges="NS1 NS2" />
        <route id="StoN" edges="SN1 SN2" />
        <route id="EtoN" edges="EW1 SN2" />
        <route id="EtoS" edges="EW1 NS2" />
        <route id="WtoN" edges="WE1 SN2" />
        <route id="WtoS" edges="WE1 NS2" />
        <route id="NtoE" edges="NS1 WE2" />
        <route id="NtoW" edges="NS1 EW2" />
        <route id="StoE" edges="SN1 WE2" />
        <route id="StoW" edges="SN1 EW2" />
        
    <vehicle id="EW_0" type="typeWE" route="EtoW" depart="1" />
    <vehicle id="ES_1" type="typeWE" route="EtoS" depart="4" />
    <vehicle id="WS_2" type="typeWE" route="WtoS" depart="4" color="1,0,0"/>
    <vehicle id="NW_3" type="typeWE" route="NtoW" depart="9" color="0,1,0"/>
    <vehicle id="ES_4" type="typeWE" route="EtoS" depart="11" />
    <vehicle id="WS_5" type="typeWE" route="WtoS" depart="13" color="1,0,0"/>
    <vehicle id="NW_6" type="typeWE" route="NtoW" depart="15" color="0,1,0"/>
    <vehicle id="ES_7" type="typeWE" route="EtoS" depart="17" />
    <vehicle id="SE_8" type="typeWE" route="StoE" depart="19" />
    <vehicle id="ES_9" type="typeWE" route="EtoS" depart="20" />
    <vehicle id="SE_10" type="typeWE" route="StoE" depart="20" />
    <vehicle id="WS_11" type="typeWE" route="WtoS" depart="21" color="1,0,0"/>
    <vehicle id="SE_12" type="typeWE" route="StoE" depart="22" />
    <vehicle id="WE_13" type="typeWE" route="WtoE" depart="23" />
    <vehicle id="ES_14" type="typeWE" route="EtoS" depart="25" />
    <vehicle id="SN_15" type="typeWE" route="StoN" depart="26" color="0,1,0"/>
    <vehicle id="EN_16" type="typeWE" route="EtoN" depart="29" />
    <vehicle id="WE_17" type="typeWE" route="WtoE" depart="30" />
    <vehicle id="SE_18" type="typeWE" route="StoE" depart="31" />
    <vehicle id="NW_19" type="typeWE" route="NtoW" depart="33" color="0,1,0"/>
    <vehicle id="SWt_20" type="typeWE" route="StoW" depart="34" />
    <vehicle id="SWt_21" type="typeWE" route="StoW" depart="37" />
    <vehicle id="NE_22" type="typeWE" route="NtoE" depart="38" color="1,0,0"/>
    <vehicle id="EN_23" type="typeWE" route="EtoN" depart="42" />
    <vehicle id="EW_24" type="typeWE" route="EtoW" depart="44" />
    <vehicle id="EW_25" type="typeWE" route="EtoW" depart="45" />
    <vehicle id="EW_26" type="typeWE" route="EtoW" depart="49" />
    <vehicle id="NS_27" type="typeWE" route="NtoS" depart="50" color="1,0,0"/>
    <vehicle id="EW_28" type="typeWE" route="EtoW" depart="54" />
    <vehicle id="EN_29" type="typeWE" route="EtoN" depart="55" />
    <vehicle id="ES_30" type="typeWE" route="EtoS" depart="56" />
    <vehicle id="EN_31" type="typeWE" route="EtoN" depart="57" />
    <vehicle id="SN_32" type="typeWE" route="StoN" depart="59" color="0,1,0"/>
    <vehicle id="ES_33" type="typeWE" route="EtoS" depart="60" />
    <vehicle id="EW_34" type="typeWE" route="EtoW" depart="64" />
    <vehicle id="EW_35" type="typeWE" route="EtoW" depart="65" />
    <vehicle id="EW_36" type="typeWE" route="EtoW" depart="66" />
    <vehicle id="ES_37" type="typeWE" route="EtoS" depart="66" />
    <vehicle id="EW_38" type="typeWE" route="EtoW" depart="67" />
    <vehicle id="ES_39" type="typeWE" route="EtoS" depart="67" />
    <vehicle id="SN_40" type="typeWE" route="StoN" depart="69" color="0,1,0"/>
    <vehicle id="ES_41" type="typeWE" route="EtoS" depart="73" />
    <vehicle id="EN_42" type="typeWE" route="EtoN" depart="74" />
    <vehicle id="NW_43" type="typeWE" route="NtoW" depart="76" color="0,1,0"/>
    <vehicle id="WN_44" type="typeWE" route="WtoN" depart="76" color="0,1,0"/>
    <vehicle id="EN_45" type="typeWE" route="EtoN" depart="83" />
    <vehicle id="ES_46" type="typeWE" route="EtoS" depart="85" />
    <vehicle id="EW_47" type="typeWE" route="EtoW" depart="89" />
    <vehicle id="NS_48" type="typeWE" route="NtoS" depart="89" color="1,0,0"/>
    <vehicle id="EW_49" type="typeWE" route="EtoW" depart="92" />
    <vehicle id="ES_50" type="typeWE" route="EtoS" depart="92" />
    <vehicle id="ES_51" type="typeWE" route="EtoS" depart="93" />
    <vehicle id="EN_52" type="typeWE" route="EtoN" depart="95" />
    <vehicle id="WN_53" type="typeWE" route="WtoN" depart="97" color="0,1,0"/>
    <vehicle id="ES_54" type="typeWE" route="EtoS" depart="104" />
    <vehicle id="WE_55" type="typeWE" route="WtoE" depart="105" />
    <vehicle id="EW_56" type="typeWE" route="EtoW" depart="109" />
    <vehicle id="EN_57" type="typeWE" route="EtoN" depart="110" />
    <vehicle id="EW_58" type="typeWE" route="EtoW" depart="111" />
    <vehicle id="EN_59" type="typeWE" route="EtoN" depart="111" />
    <vehicle id="ES_60" type="typeWE" route="EtoS" depart="111" />
    <vehicle id="WN_61" type="typeWE" route="WtoN" depart="111" color="0,1,0"/>
    <vehicle id="EW_62" type="typeWE" route="EtoW" depart="113" />
    <vehicle id="ES_63" type="typeWE" route="EtoS" depart="113" />
    <vehicle id="EN_64" type="typeWE" route="EtoN" depart="117" />
    <vehicle id="WS_65" type="typeWE" route="WtoS" depart="117" color="1,0,0"/>
    <vehicle id="WE_66" type="typeWE" route="WtoE" depart="120" />
    <vehicle id="NW_67" type="typeWE" route="NtoW" depart="126" color="0,1,0"/>
    <vehicle id="ES_68" type="typeWE" route="EtoS" depart="127" />
    <vehicle id="EW_69" type="typeWE" route="EtoW" depart="133" />
    <vehicle id="EW_70" type="typeWE" route="EtoW" depart="134" />
    <vehicle id="NS_71" type="typeWE" route="NtoS" depart="134" color="1,0,0"/>
    <vehicle id="SN_72" type="typeWE" route="StoN" depart="135" color="0,1,0"/>
    <vehicle id="ES_73" type="typeWE" route="EtoS" depart="137" />
    <vehicle id="EN_74" type="typeWE" route="EtoN" depart="139" />
    <vehicle id="SE_75" type="typeWE" route="StoE" depart="139" />
    <vehicle id="EW_76" type="typeWE" route="EtoW" depart="143" />
    <vehicle id="ES_77" type="typeWE" route="EtoS" depart="144" />
    <vehicle id="ES_78" type="typeWE" route="EtoS" depart="145" />
    <vehicle id="EN_79" type="typeWE" route="EtoN" depart="147" />
    <vehicle id="ES_80" type="typeWE" route="EtoS" depart="147" />
    <vehicle id="WN_81" type="typeWE" route="WtoN" depart="147" color="0,1,0"/>
    <vehicle id="EN_82" type="typeWE" route="EtoN" depart="148" />
    <vehicle id="SE_83" type="typeWE" route="StoE" depart="158" />
    <vehicle id="NS_84" type="typeWE" route="NtoS" depart="159" color="1,0,0"/>
    <vehicle id="SWt_85" type="typeWE" route="StoW" depart="159" />
    <vehicle id="SN_86" type="typeWE" route="StoN" depart="161" color="0,1,0"/>
    <vehicle id="EN_87" type="typeWE" route="EtoN" depart="162" />
    <vehicle id="EN_88" type="typeWE" route="EtoN" depart="163" />
    <vehicle id="EW_89" type="typeWE" route="EtoW" depart="170" />
    <vehicle id="EN_90" type="typeWE" route="EtoN" depart="170" />
    <vehicle id="ES_91" type="typeWE" route="EtoS" depart="170" />
    <vehicle id="SN_92" type="typeWE" route="StoN" depart="172" color="0,1,0"/>
    <vehicle id="NE_93" type="typeWE" route="NtoE" depart="172" color="1,0,0"/>
    <vehicle id="EN_94" type="typeWE" route="EtoN" depart="178" />
    <vehicle id="WS_95" type="typeWE" route="WtoS" depart="180" color="1,0,0"/>
    <vehicle id="SE_96" type="typeWE" route="StoE" depart="183" />
    <vehicle id="ES_97" type="typeWE" route="EtoS" depart="189" />
    <vehicle id="NE_98" type="typeWE" route="NtoE" depart="190" color="1,0,0"/>
    <vehicle id="ES_99" type="typeWE" route="EtoS" depart="192" />
    <vehicle id="NS_100" type="typeWE" route="NtoS" depart="194" color="1,0,0"/>
    <vehicle id="NS_101" type="typeWE" route="NtoS" depart="196" color="1,0,0"/>
    <vehicle id="EN_102" type="typeWE" route="EtoN" depart="196" />
    <vehicle id="NE_103" type="typeWE" route="NtoE" depart="196" color="1,0,0"/>
    <vehicle id="EW_104" type="typeWE" route="EtoW" depart="197" />
    <vehicle id="EN_105" type="typeWE" route="EtoN" depart="197" />
    <vehicle id="EW_106" type="typeWE" route="EtoW" depart="198" />
    <vehicle id="EN_107" type="typeWE" route="EtoN" depart="199" />
    <vehicle id="ES_108" type="typeWE" route="EtoS" depart="199" />
    <vehicle id="SE_109" type="typeWE" route="StoE" depart="203" />
    <vehicle id="NW_110" type="typeWE" route="NtoW" depart="204" color="0,1,0"/>
    <vehicle id="SWt_111" type="typeWE" route="StoW" depart="208" />
    <vehicle id="NS_112" type="typeWE" route="NtoS" depart="209" color="1,0,0"/>
    <vehicle id="EW_113" type="typeWE" route="EtoW" depart="211" />
    <vehicle id="SWt_114" type="typeWE" route="StoW" depart="212" />
    <vehicle id="ES_115" type="typeWE" route="EtoS" depart="214" />
    <vehicle id="EN_116" type="typeWE" route="EtoN" depart="220" />
    <vehicle id="ES_117" type="typeWE" route="EtoS" depart="220" />
    <vehicle id="EN_118" type="typeWE" route="EtoN" depart="222" />
    <vehicle id="EN_119" type="typeWE" route="EtoN" depart="223" />
    <vehicle id="ES_120" type="typeWE" route="EtoS" depart="223" />
    <vehicle id="EN_121" type="typeWE" route="EtoN" depart="225" />
    <vehicle id="NW_122" type="typeWE" route="NtoW" depart="226" color="0,1,0"/>
    <vehicle id="SN_123" type="typeWE" route="StoN" depart="232" color="0,1,0"/>
    <vehicle id="NE_124" type="typeWE" route="NtoE" depart="232" color="1,0,0"/>
    <vehicle id="EW_125" type="typeWE" route="EtoW" depart="233" />
    <vehicle id="EW_126" type="typeWE" route="EtoW" depart="234" />
    <vehicle id="ES_127" type="typeWE" route="EtoS" depart="235" />
    <vehicle id="EW_128" type="typeWE" route="EtoW" depart="236" />
    <vehicle id="WE_129" type="typeWE" route="WtoE" depart="239" />
    <vehicle id="EN_130" type="typeWE" route="EtoN" depart="240" />
    <vehicle id="EN_131" type="typeWE" route="EtoN" depart="242" />
    <vehicle id="SN_132" type="typeWE" route="StoN" depart="243" color="0,1,0"/>
    <vehicle id="EN_133" type="typeWE" route="EtoN" depart="245" />
    <vehicle id="EW_134" type="typeWE" route="EtoW" depart="247" />
    <vehicle id="EW_135" type="typeWE" route="EtoW" depart="251" />
    <vehicle id="WN_136" type="typeWE" route="WtoN" depart="251" color="0,1,0"/>
    <vehicle id="SWt_137" type="typeWE" route="StoW" depart="254" />
    <vehicle id="WE_138" type="typeWE" route="WtoE" depart="255" />
    <vehicle id="EW_139" type="typeWE" route="EtoW" depart="261" />
    <vehicle id="EN_140" type="typeWE" route="EtoN" depart="264" />
    <vehicle id="ES_141" type="typeWE" route="EtoS" depart="267" />
    <vehicle id="ES_142" type="typeWE" route="EtoS" depart="269" />
    <vehicle id="ES_143" type="typeWE" route="EtoS" depart="278" />
    <vehicle id="EN_144" type="typeWE" route="EtoN" depart="280" />
    <vehicle id="WN_145" type="typeWE" route="WtoN" depart="280" color="0,1,0"/>
    <vehicle id="EW_146" type="typeWE" route="EtoW" depart="281" />
    <vehicle id="SN_147" type="typeWE" route="StoN" depart="281" color="0,1,0"/>
    <vehicle id="EW_148" type="typeWE" route="EtoW" depart="282" />
    <vehicle id="WN_149" type="typeWE" route="WtoN" depart="283" color="0,1,0"/>
    <vehicle id="EW_150" type="typeWE" route="EtoW" depart="284" />
    <vehicle id="NS_151" type="typeWE" route="NtoS" depart="284" color="1,0,0"/>
    <vehicle id="WE_152" type="typeWE" route="WtoE" depart="286" />
    <vehicle id="NE_153" type="typeWE" route="NtoE" depart="286" color="1,0,0"/>
    <vehicle id="EN_154" type="typeWE" route="EtoN" depart="288" />
    <vehicle id="WS_155" type="typeWE" route="WtoS" depart="288" color="1,0,0"/>
    <vehicle id="NS_156" type="typeWE" route="NtoS" depart="289" color="1,0,0"/>
    <vehicle id="SE_157" type="typeWE" route="StoE" depart="289" />
    <vehicle id="EW_158" type="typeWE" route="EtoW" depart="291" />
    <vehicle id="EN_159" type="typeWE" route="EtoN" depart="292" />
    <vehicle id="NE_160" type="typeWE" route="NtoE" depart="292" color="1,0,0"/>
    <vehicle id="SWt_161" type="typeWE" route="StoW" depart="292" />
    <vehicle id="EN_162" type="typeWE" route="EtoN" depart="293" />
    <vehicle id="ES_163" type="typeWE" route="EtoS" depart="298" />
    <vehicle id="EN_164" type="typeWE" route="EtoN" depart="299" />
    <vehicle id="EN_165" type="typeWE" route="EtoN" depart="302" />
    <vehicle id="WS_166" type="typeWE" route="WtoS" depart="302" color="1,0,0"/>
    <vehicle id="SN_167" type="typeWE" route="StoN" depart="304" color="0,1,0"/>
    <vehicle id="EW_168" type="typeWE" route="EtoW" depart="305" />
    <vehicle id="WN_169" type="typeWE" route="WtoN" depart="305" color="0,1,0"/>
    <vehicle id="EN_170" type="typeWE" route="EtoN" depart="307" />
    <vehicle id="NW_171" type="typeWE" route="NtoW" depart="307" color="0,1,0"/>
    <vehicle id="WE_172" type="typeWE" route="WtoE" depart="308" />
    <vehicle id="EW_173" type="typeWE" route="EtoW" depart="310" />
    <vehicle id="EW_174" type="typeWE" route="EtoW" depart="312" />
    <vehicle id="EN_175" type="typeWE" route="EtoN" depart="317" />
    <vehicle id="ES_176" type="typeWE" route="EtoS" depart="318" />
    <vehicle id="EW_177" type="typeWE" route="EtoW" depart="319" />
    <vehicle id="EW_178" type="typeWE" route="EtoW" depart="322" />
    <vehicle id="EN_179" type="typeWE" route="EtoN" depart="322" />
    <vehicle id="EW_180" type="typeWE" route="EtoW" depart="323" />
    <vehicle id="WE_181" type="typeWE" route="WtoE" depart="326" />
    <vehicle id="ES_182" type="typeWE" route="EtoS" depart="326" />
    <vehicle id="EW_183" type="typeWE" route="EtoW" depart="327" />
    <vehicle id="SE_184" type="typeWE" route="StoE" depart="329" />
    <vehicle id="SE_185" type="typeWE" route="StoE" depart="330" />
    <vehicle id="EW_186" type="typeWE" route="EtoW" depart="332" />
    <vehicle id="ES_187" type="typeWE" route="EtoS" depart="332" />
    <vehicle id="NE_188" type="typeWE" route="NtoE" depart="333" color="1,0,0"/>
    <vehicle id="WS_189" type="typeWE" route="WtoS" depart="336" color="1,0,0"/>
    <vehicle id="EW_190" type="typeWE" route="EtoW" depart="338" />
    <vehicle id="NS_191" type="typeWE" route="NtoS" depart="338" color="1,0,0"/>
    <vehicle id="WN_192" type="typeWE" route="WtoN" depart="338" color="0,1,0"/>
    <vehicle id="EW_193" type="typeWE" route="EtoW" depart="339" />
    <vehicle id="ES_194" type="typeWE" route="EtoS" depart="339" />
    <vehicle id="ES_195" type="typeWE" route="EtoS" depart="341" />
    <vehicle id="SWt_196" type="typeWE" route="StoW" depart="341" />
    <vehicle id="WN_197" type="typeWE" route="WtoN" depart="341" color="0,1,0"/>
    <vehicle id="NS_198" type="typeWE" route="NtoS" depart="345" color="1,0,0"/>
    <vehicle id="EN_199" type="typeWE" route="EtoN" depart="346" />
    <vehicle id="NW_200" type="typeWE" route="NtoW" depart="346" color="0,1,0"/>
    <vehicle id="WN_201" type="typeWE" route="WtoN" depart="347" color="0,1,0"/>
    <vehicle id="EW_202" type="typeWE" route="EtoW" depart="348" />
    <vehicle id="SN_203" type="typeWE" route="StoN" depart="348" color="0,1,0"/>
    <vehicle id="SWt_204" type="typeWE" route="StoW" depart="349" />
    <vehicle id="WN_205" type="typeWE" route="WtoN" depart="351" color="0,1,0"/>
    <vehicle id="EW_206" type="typeWE" route="EtoW" depart="355" />
    <vehicle id="SN_207" type="typeWE" route="StoN" depart="356" color="0,1,0"/>
    <vehicle id="EN_208" type="typeWE" route="EtoN" depart="357" />
    <vehicle id="EN_209" type="typeWE" route="EtoN" depart="358" />
    <vehicle id="ES_210" type="typeWE" route="EtoS" depart="359" />
    <vehicle id="EW_211" type="typeWE" route="EtoW" depart="361" />
    <vehicle id="WN_212" type="typeWE" route="WtoN" depart="362" color="0,1,0"/>
    <vehicle id="ES_213" type="typeWE" route="EtoS" depart="363" />
    <vehicle id="WS_214" type="typeWE" route="WtoS" depart="363" color="1,0,0"/>
    <vehicle id="EW_215" type="typeWE" route="EtoW" depart="365" />
    <vehicle id="EN_216" type="typeWE" route="EtoN" depart="365" />
    <vehicle id="EW_217" type="typeWE" route="EtoW" depart="367" />
    <vehicle id="ES_218" type="typeWE" route="EtoS" depart="370" />
    <vehicle id="EN_219" type="typeWE" route="EtoN" depart="375" />
    <vehicle id="ES_220" type="typeWE" route="EtoS" depart="375" />
    <vehicle id="NE_221" type="typeWE" route="NtoE" depart="377" color="1,0,0"/>
    <vehicle id="SN_222" type="typeWE" route="StoN" depart="379" color="0,1,0"/>
    <vehicle id="SE_223" type="typeWE" route="StoE" depart="380" />
    <vehicle id="WS_224" type="typeWE" route="WtoS" depart="381" color="1,0,0"/>
    <vehicle id="EN_225" type="typeWE" route="EtoN" depart="382" />
    <vehicle id="EW_226" type="typeWE" route="EtoW" depart="384" />
    <vehicle id="ES_227" type="typeWE" route="EtoS" depart="385" />
    <vehicle id="EW_228" type="typeWE" route="EtoW" depart="386" />
    <vehicle id="ES_229" type="typeWE" route="EtoS" depart="387" />
    <vehicle id="NE_230" type="typeWE" route="NtoE" depart="387" color="1,0,0"/>
    <vehicle id="EW_231" type="typeWE" route="EtoW" depart="389" />
    <vehicle id="EW_232" type="typeWE" route="EtoW" depart="392" />
    <vehicle id="SN_233" type="typeWE" route="StoN" depart="392" color="0,1,0"/>
    <vehicle id="EW_234" type="typeWE" route="EtoW" depart="394" />
    <vehicle id="SN_235" type="typeWE" route="StoN" depart="395" color="0,1,0"/>
    <vehicle id="NW_236" type="typeWE" route="NtoW" depart="395" color="0,1,0"/>
    <vehicle id="EN_237" type="typeWE" route="EtoN" depart="398" />
    <vehicle id="EW_238" type="typeWE" route="EtoW" depart="399" />
    <vehicle id="SN_239" type="typeWE" route="StoN" depart="399" color="0,1,0"/>
    <vehicle id="SN_240" type="typeWE" route="StoN" depart="400" color="0,1,0"/>
    <vehicle id="SN_241" type="typeWE" route="StoN" depart="401" color="0,1,0"/>
    <vehicle id="NS_242" type="typeWE" route="NtoS" depart="406" color="1,0,0"/>
    <vehicle id="EN_243" type="typeWE" route="EtoN" depart="406" />
    <vehicle id="WE_244" type="typeWE" route="WtoE" depart="407" />
    <vehicle id="EW_245" type="typeWE" route="EtoW" depart="407" />
    <vehicle id="EN_246" type="typeWE" route="EtoN" depart="409" />
    <vehicle id="SWt_247" type="typeWE" route="StoW" depart="412" />
    <vehicle id="EN_248" type="typeWE" route="EtoN" depart="416" />
    <vehicle id="NW_249" type="typeWE" route="NtoW" depart="417" color="0,1,0"/>
    <vehicle id="SN_250" type="typeWE" route="StoN" depart="419" color="0,1,0"/>
    <vehicle id="EN_251" type="typeWE" route="EtoN" depart="419" />
    <vehicle id="ES_252" type="typeWE" route="EtoS" depart="421" />
    <vehicle id="NW_253" type="typeWE" route="NtoW" depart="421" color="0,1,0"/>
    <vehicle id="NS_254" type="typeWE" route="NtoS" depart="425" color="1,0,0"/>
    <vehicle id="NW_255" type="typeWE" route="NtoW" depart="425" color="0,1,0"/>
    <vehicle id="NS_256" type="typeWE" route="NtoS" depart="427" color="1,0,0"/>
    <vehicle id="NE_257" type="typeWE" route="NtoE" depart="428" color="1,0,0"/>
    <vehicle id="EN_258" type="typeWE" route="EtoN" depart="432" />
    <vehicle id="EW_259" type="typeWE" route="EtoW" depart="433" />
    <vehicle id="SN_260" type="typeWE" route="StoN" depart="433" color="0,1,0"/>
    <vehicle id="EW_261" type="typeWE" route="EtoW" depart="436" />
    <vehicle id="ES_262" type="typeWE" route="EtoS" depart="438" />
    <vehicle id="ES_263" type="typeWE" route="EtoS" depart="439" />
    <vehicle id="SWt_264" type="typeWE" route="StoW" depart="439" />
    <vehicle id="ES_265" type="typeWE" route="EtoS" depart="441" />
    <vehicle id="EW_266" type="typeWE" route="EtoW" depart="448" />
    <vehicle id="WN_267" type="typeWE" route="WtoN" depart="448" color="0,1,0"/>
    <vehicle id="EN_268" type="typeWE" route="EtoN" depart="449" />
    <vehicle id="SN_269" type="typeWE" route="StoN" depart="450" color="0,1,0"/>
    <vehicle id="ES_270" type="typeWE" route="EtoS" depart="451" />
    <vehicle id="SE_271" type="typeWE" route="StoE" depart="453" />
    <vehicle id="WS_272" type="typeWE" route="WtoS" depart="455" color="1,0,0"/>
    <vehicle id="EW_273" type="typeWE" route="EtoW" depart="456" />
    <vehicle id="NS_274" type="typeWE" route="NtoS" depart="457" color="1,0,0"/>
    <vehicle id="WS_275" type="typeWE" route="WtoS" depart="458" color="1,0,0"/>
    <vehicle id="EW_276" type="typeWE" route="EtoW" depart="461" />
    <vehicle id="ES_277" type="typeWE" route="EtoS" depart="464" />
    <vehicle id="ES_278" type="typeWE" route="EtoS" depart="465" />
    <vehicle id="SWt_279" type="typeWE" route="StoW" depart="466" />
    <vehicle id="SWt_280" type="typeWE" route="StoW" depart="467" />
    <vehicle id="EN_281" type="typeWE" route="EtoN" depart="469" />
    <vehicle id="EN_282" type="typeWE" route="EtoN" depart="470" />
    <vehicle id="EW_283" type="typeWE" route="EtoW" depart="471" />
    <vehicle id="SN_284" type="typeWE" route="StoN" depart="472" color="0,1,0"/>
    <vehicle id="SE_285" type="typeWE" route="StoE" depart="475" />
    <vehicle id="SN_286" type="typeWE" route="StoN" depart="477" color="0,1,0"/>
    <vehicle id="EN_287" type="typeWE" route="EtoN" depart="478" />
    <vehicle id="SE_288" type="typeWE" route="StoE" depart="483" />
    <vehicle id="SN_289" type="typeWE" route="StoN" depart="486" color="0,1,0"/>
    <vehicle id="EN_290" type="typeWE" route="EtoN" depart="487" />
    <vehicle id="WS_291" type="typeWE" route="WtoS" depart="487" color="1,0,0"/>
    <vehicle id="EN_292" type="typeWE" route="EtoN" depart="490" />
    <vehicle id="WN_293" type="typeWE" route="WtoN" depart="493" color="0,1,0"/>
    <vehicle id="WN_294" type="typeWE" route="WtoN" depart="495" color="0,1,0"/>
    <vehicle id="WS_295" type="typeWE" route="WtoS" depart="496" color="1,0,0"/>
    <vehicle id="EN_296" type="typeWE" route="EtoN" depart="498" />
    <vehicle id="SE_297" type="typeWE" route="StoE" depart="498" />
    <vehicle id="EW_298" type="typeWE" route="EtoW" depart="500" />
    <vehicle id="WS_299" type="typeWE" route="WtoS" depart="503" color="1,0,0"/>
    <vehicle id="ES_300" type="typeWE" route="EtoS" depart="504" />
    <vehicle id="WN_301" type="typeWE" route="WtoN" depart="505" color="0,1,0"/>
    <vehicle id="EN_302" type="typeWE" route="EtoN" depart="506" />
    <vehicle id="ES_303" type="typeWE" route="EtoS" depart="507" />
    <vehicle id="EW_304" type="typeWE" route="EtoW" depart="509" />
    <vehicle id="ES_305" type="typeWE" route="EtoS" depart="509" />
    <vehicle id="NS_306" type="typeWE" route="NtoS" depart="511" color="1,0,0"/>
    <vehicle id="EN_307" type="typeWE" route="EtoN" depart="513" />
    <vehicle id="NE_308" type="typeWE" route="NtoE" depart="513" color="1,0,0"/>
    <vehicle id="SE_309" type="typeWE" route="StoE" depart="513" />
    <vehicle id="NW_310" type="typeWE" route="NtoW" depart="516" color="0,1,0"/>
    <vehicle id="SN_311" type="typeWE" route="StoN" depart="517" color="0,1,0"/>
    <vehicle id="NW_312" type="typeWE" route="NtoW" depart="518" color="0,1,0"/>
    <vehicle id="WE_313" type="typeWE" route="WtoE" depart="519" />
    <vehicle id="SE_314" type="typeWE" route="StoE" depart="520" />
    <vehicle id="EN_315" type="typeWE" route="EtoN" depart="523" />
    <vehicle id="NW_316" type="typeWE" route="NtoW" depart="526" color="0,1,0"/>
    <vehicle id="SN_317" type="typeWE" route="StoN" depart="527" color="0,1,0"/>
    <vehicle id="ES_318" type="typeWE" route="EtoS" depart="527" />
    <vehicle id="EW_319" type="typeWE" route="EtoW" depart="528" />
    <vehicle id="NW_320" type="typeWE" route="NtoW" depart="528" color="0,1,0"/>
    <vehicle id="WE_321" type="typeWE" route="WtoE" depart="530" />
    <vehicle id="EW_322" type="typeWE" route="EtoW" depart="530" />
    <vehicle id="EN_323" type="typeWE" route="EtoN" depart="530" />
    <vehicle id="ES_324" type="typeWE" route="EtoS" depart="532" />
    <vehicle id="ES_325" type="typeWE" route="EtoS" depart="533" />
    <vehicle id="EW_326" type="typeWE" route="EtoW" depart="534" />
    <vehicle id="ES_327" type="typeWE" route="EtoS" depart="540" />
    <vehicle id="SE_328" type="typeWE" route="StoE" depart="541" />
    <vehicle id="SN_329" type="typeWE" route="StoN" depart="542" color="0,1,0"/>
    <vehicle id="WS_330" type="typeWE" route="WtoS" depart="542" color="1,0,0"/>
    <vehicle id="NS_331" type="typeWE" route="NtoS" depart="546" color="1,0,0"/>
    <vehicle id="EW_332" type="typeWE" route="EtoW" depart="547" />
    <vehicle id="SN_333" type="typeWE" route="StoN" depart="552" color="0,1,0"/>
    <vehicle id="EN_334" type="typeWE" route="EtoN" depart="552" />
    <vehicle id="EW_335" type="typeWE" route="EtoW" depart="553" />
    <vehicle id="ES_336" type="typeWE" route="EtoS" depart="553" />
    <vehicle id="SWt_337" type="typeWE" route="StoW" depart="558" />
    <vehicle id="EW_338" type="typeWE" route="EtoW" depart="559" />
    <vehicle id="EN_339" type="typeWE" route="EtoN" depart="560" />
    <vehicle id="SE_340" type="typeWE" route="StoE" depart="560" />
    <vehicle id="NS_341" type="typeWE" route="NtoS" depart="561" color="1,0,0"/>
    <vehicle id="NS_342" type="typeWE" route="NtoS" depart="562" color="1,0,0"/>
    <vehicle id="EW_343" type="typeWE" route="EtoW" depart="568" />
    <vehicle id="NW_344" type="typeWE" route="NtoW" depart="569" color="0,1,0"/>
    <vehicle id="EW_345" type="typeWE" route="EtoW" depart="571" />
    <vehicle id="ES_346" type="typeWE" route="EtoS" depart="571" />
    <vehicle id="WS_347" type="typeWE" route="WtoS" depart="576" color="1,0,0"/>
    <vehicle id="EN_348" type="typeWE" route="EtoN" depart="578" />
    <vehicle id="SN_349" type="typeWE" route="StoN" depart="579" color="0,1,0"/>
    <vehicle id="ES_350" type="typeWE" route="EtoS" depart="579" />
    <vehicle id="WS_351" type="typeWE" route="WtoS" depart="583" color="1,0,0"/>
    <vehicle id="ES_352" type="typeWE" route="EtoS" depart="584" />
    <vehicle id="SE_353" type="typeWE" route="StoE" depart="585" />
    <vehicle id="ES_354" type="typeWE" route="EtoS" depart="586" />
    <vehicle id="NW_355" type="typeWE" route="NtoW" depart="588" color="0,1,0"/>
    <vehicle id="EN_356" type="typeWE" route="EtoN" depart="589" />
    <vehicle id="EN_357" type="typeWE" route="EtoN" depart="592" />
    <vehicle id="SE_358" type="typeWE" route="StoE" depart="592" />
    <vehicle id="ES_359" type="typeWE" route="EtoS" depart="593" />
    <vehicle id="SE_360" type="typeWE" route="StoE" depart="593" />
    <vehicle id="SWt_361" type="typeWE" route="StoW" depart="593" />
    <vehicle id="EW_362" type="typeWE" route="EtoW" depart="594" />
    <vehicle id="EN_363" type="typeWE" route="EtoN" depart="595" />
    <vehicle id="WS_364" type="typeWE" route="WtoS" depart="595" color="1,0,0"/>
    <vehicle id="WE_365" type="typeWE" route="WtoE" depart="605" />
    <vehicle id="EW_366" type="typeWE" route="EtoW" depart="608" />
    <vehicle id="EW_367" type="typeWE" route="EtoW" depart="610" />
    <vehicle id="SE_368" type="typeWE" route="StoE" depart="612" />
    <vehicle id="NW_369" type="typeWE" route="NtoW" depart="614" color="0,1,0"/>
    <vehicle id="EW_370" type="typeWE" route="EtoW" depart="615" />
    <vehicle id="EN_371" type="typeWE" route="EtoN" depart="616" />
    <vehicle id="EW_372" type="typeWE" route="EtoW" depart="619" />
    <vehicle id="SE_373" type="typeWE" route="StoE" depart="619" />
    <vehicle id="EW_374" type="typeWE" route="EtoW" depart="622" />
    <vehicle id="EW_375" type="typeWE" route="EtoW" depart="623" />
    <vehicle id="NW_376" type="typeWE" route="NtoW" depart="625" color="0,1,0"/>
    <vehicle id="WE_377" type="typeWE" route="WtoE" depart="627" />
    <vehicle id="ES_378" type="typeWE" route="EtoS" depart="629" />
    <vehicle id="WE_379" type="typeWE" route="WtoE" depart="632" />
    <vehicle id="EN_380" type="typeWE" route="EtoN" depart="632" />
    <vehicle id="EN_381" type="typeWE" route="EtoN" depart="634" />
    <vehicle id="EN_382" type="typeWE" route="EtoN" depart="639" />
    <vehicle id="NW_383" type="typeWE" route="NtoW" depart="640" color="0,1,0"/>
    <vehicle id="ES_384" type="typeWE" route="EtoS" depart="642" />
    <vehicle id="ES_385" type="typeWE" route="EtoS" depart="644" />
    <vehicle id="WN_386" type="typeWE" route="WtoN" depart="645" color="0,1,0"/>
    <vehicle id="SE_387" type="typeWE" route="StoE" depart="648" />
    <vehicle id="SWt_388" type="typeWE" route="StoW" depart="649" />
    <vehicle id="EN_389" type="typeWE" route="EtoN" depart="650" />
    <vehicle id="NW_390" type="typeWE" route="NtoW" depart="651" color="0,1,0"/>
    <vehicle id="ES_391" type="typeWE" route="EtoS" depart="658" />
    <vehicle id="NW_392" type="typeWE" route="NtoW" depart="658" color="0,1,0"/>
    <vehicle id="NE_393" type="typeWE" route="NtoE" depart="659" color="1,0,0"/>
    <vehicle id="NW_394" type="typeWE" route="NtoW" depart="659" color="0,1,0"/>
    <vehicle id="EW_395" type="typeWE" route="EtoW" depart="662" />
    <vehicle id="EN_396" type="typeWE" route="EtoN" depart="663" />
    <vehicle id="NW_397" type="typeWE" route="NtoW" depart="669" color="0,1,0"/>
    <vehicle id="SE_398" type="typeWE" route="StoE" depart="670" />
    <vehicle id="WN_399" type="typeWE" route="WtoN" depart="670" color="0,1,0"/>
    <vehicle id="ES_400" type="typeWE" route="EtoS" depart="673" />
    <vehicle id="NE_401" type="typeWE" route="NtoE" depart="677" color="1,0,0"/>
    <vehicle id="WE_402" type="typeWE" route="WtoE" depart="679" />
    <vehicle id="EW_403" type="typeWE" route="EtoW" depart="685" />
    <vehicle id="EW_404" type="typeWE" route="EtoW" depart="686" />
    <vehicle id="EN_405" type="typeWE" route="EtoN" depart="687" />
    <vehicle id="EN_406" type="typeWE" route="EtoN" depart="688" />